
**** 04/06/19 11:16:42 ******* PSpice Lite (March 2016) ******* ID# 10813 ****

 diody zad3


 ****     CIRCUIT DESCRIPTION


******************************************************************************



*-------
.LIB EVAL.LIB 
.PARAM OFFSET =0
.PARAM CAPACITY =0
*-------
V1 1 0 SIN(0 10 1k 0 0 0)
*-------
D1 1 2 D1N4148  
R1 2 0 1k
C1 2 0 {CAPACITY}
*-------

.STEP LIN PARAM CAPACITY 10u 20u 0.2u
.TRAN 0 4m 0.5m 10u
.FOUR 1kHz V(R1)
.PROBE

.END

**** 04/06/19 11:16:42 ******* PSpice Lite (March 2016) ******* ID# 10813 ****

 diody zad3


 ****     Diode MODEL PARAMETERS


******************************************************************************




               D1N4148         
          IS    2.682000E-09 
           N    1.836        
         ISR    1.565000E-09 
         IKF     .04417      
          BV  100            
         IBV  100.000000E-06 
          RS     .5664       
          TT   11.540000E-09 
         CJO    4.000000E-12 
          VJ     .5          
           M     .3333       


**** 04/06/19 11:16:42 ******* PSpice Lite (March 2016) ******* ID# 10813 ****

 diody zad3


 ****     INITIAL TRANSIENT SOLUTION       TEMPERATURE =   27.000 DEG C

 ****     CURRENT STEP                     PARAM CAPACITY =   10.0000E-06


******************************************************************************



 NODE   VOLTAGE     NODE   VOLTAGE     NODE   VOLTAGE     NODE   VOLTAGE


(    1)    0.0000  (    2) 76.02E-24  




    VOLTAGE SOURCE CURRENTS
    NAME         CURRENT

    V1          -7.602E-26

    TOTAL POWER DISSIPATION   0.00E+00  WATTS


**** 04/06/19 11:16:42 ******* PSpice Lite (March 2016) ******* ID# 10813 ****

 diody zad3


 ****     FOURIER ANALYSIS                 TEMPERATURE =   27.000 DEG C

 ****     CURRENT STEP                     PARAM CAPACITY =   10.0000E-06


******************************************************************************



FOURIER COMPONENTS OF TRANSIENT RESPONSE V(R1)



 DC COMPONENT =   8.8009E+00

 HARMONIC   FREQUENCY     FOURIER     NORMALIZED     PHASE     NORMALIZED
    NO         (HZ)      COMPONENT     COMPONENT     (DEG)     PHASE (DEG)

     1    1.0000E+03   2.7778E-01   1.0000E+00  -7.8145E+01   0.0000E+00
     2    2.0000E+03   1.3556E-01   4.8803E-01  -1.5766E+02  -1.3693E+00
     3    3.0000E+03   8.6885E-02   3.1278E-01   1.2322E+02   3.5765E+02
     4    4.0000E+03   6.1673E-02   2.2202E-01   4.4373E+01   3.5695E+02
     5    5.0000E+03   4.5900E-02   1.6524E-01  -3.4174E+01   3.5655E+02
     6    6.0000E+03   3.4963E-02   1.2587E-01  -1.1244E+02   3.5643E+02
     7    7.0000E+03   2.6944E-02   9.6998E-02   1.6964E+02   7.1665E+02
     8    8.0000E+03   2.0858E-02   7.5090E-02   9.2260E+01   7.1742E+02
     9    9.0000E+03   1.6119E-02   5.8029E-02   1.5640E+01   7.1894E+02


     TOTAL HARMONIC DISTORTION =   6.6847E+01 PERCENT

**** 04/06/19 11:16:42 ******* PSpice Lite (March 2016) ******* ID# 10813 ****

 diody zad3


 ****     INITIAL TRANSIENT SOLUTION       TEMPERATURE =   27.000 DEG C

 ****     CURRENT STEP                     PARAM CAPACITY =   10.2000E-06


******************************************************************************



 NODE   VOLTAGE     NODE   VOLTAGE     NODE   VOLTAGE     NODE   VOLTAGE


(    1)    0.0000  (    2) 76.02E-24  




    VOLTAGE SOURCE CURRENTS
    NAME         CURRENT

    V1          -7.602E-26

    TOTAL POWER DISSIPATION   0.00E+00  WATTS


**** 04/06/19 11:16:42 ******* PSpice Lite (March 2016) ******* ID# 10813 ****

 diody zad3


 ****     FOURIER ANALYSIS                 TEMPERATURE =   27.000 DEG C

 ****     CURRENT STEP                     PARAM CAPACITY =   10.2000E-06


******************************************************************************



FOURIER COMPONENTS OF TRANSIENT RESPONSE V(R1)



 DC COMPONENT =   8.8066E+00

 HARMONIC   FREQUENCY     FOURIER     NORMALIZED     PHASE     NORMALIZED
    NO         (HZ)      COMPONENT     COMPONENT     (DEG)     PHASE (DEG)

     1    1.0000E+03   2.7233E-01   1.0000E+00  -7.8340E+01   0.0000E+00
     2    2.0000E+03   1.3278E-01   4.8756E-01  -1.5810E+02  -1.4150E+00
     3    3.0000E+03   8.5120E-02   3.1256E-01   1.2251E+02   3.5753E+02
     4    4.0000E+03   6.0472E-02   2.2206E-01   4.3467E+01   3.5683E+02
     5    5.0000E+03   4.4991E-02   1.6521E-01  -3.5221E+01   3.5648E+02
     6    6.0000E+03   3.4214E-02   1.2563E-01  -1.1368E+02   3.5636E+02
     7    7.0000E+03   2.6340E-02   9.6722E-02   1.6814E+02   7.1652E+02
     8    8.0000E+03   2.0405E-02   7.4928E-02   9.0545E+01   7.1727E+02
     9    9.0000E+03   1.5774E-02   5.7922E-02   1.3851E+01   7.1891E+02


     TOTAL HARMONIC DISTORTION =   6.6792E+01 PERCENT

**** 04/06/19 11:16:42 ******* PSpice Lite (March 2016) ******* ID# 10813 ****

 diody zad3


 ****     INITIAL TRANSIENT SOLUTION       TEMPERATURE =   27.000 DEG C

 ****     CURRENT STEP                     PARAM CAPACITY =   10.4000E-06


******************************************************************************



 NODE   VOLTAGE     NODE   VOLTAGE     NODE   VOLTAGE     NODE   VOLTAGE


(    1)    0.0000  (    2) 76.02E-24  




    VOLTAGE SOURCE CURRENTS
    NAME         CURRENT

    V1          -7.602E-26

    TOTAL POWER DISSIPATION   0.00E+00  WATTS


**** 04/06/19 11:16:42 ******* PSpice Lite (March 2016) ******* ID# 10813 ****

 diody zad3


 ****     FOURIER ANALYSIS                 TEMPERATURE =   27.000 DEG C

 ****     CURRENT STEP                     PARAM CAPACITY =   10.4000E-06


******************************************************************************



FOURIER COMPONENTS OF TRANSIENT RESPONSE V(R1)



 DC COMPONENT =   8.8148E+00

 HARMONIC   FREQUENCY     FOURIER     NORMALIZED     PHASE     NORMALIZED
    NO         (HZ)      COMPONENT     COMPONENT     (DEG)     PHASE (DEG)

     1    1.0000E+03   2.6824E-01   1.0000E+00  -7.8853E+01   0.0000E+00
     2    2.0000E+03   1.3131E-01   4.8951E-01  -1.5867E+02  -9.6389E-01
     3    3.0000E+03   8.3860E-02   3.1262E-01   1.2202E+02   3.5858E+02
     4    4.0000E+03   5.9082E-02   2.2025E-01   4.2690E+01   3.5810E+02
     5    5.0000E+03   4.3848E-02   1.6346E-01  -3.6578E+01   3.5769E+02
     6    6.0000E+03   3.3479E-02   1.2481E-01  -1.1526E+02   3.5786E+02
     7    7.0000E+03   2.5749E-02   9.5989E-02   1.6686E+02   7.1883E+02
     8    8.0000E+03   1.9719E-02   7.3511E-02   8.9420E+01   7.2025E+02
     9    9.0000E+03   1.5089E-02   5.6250E-02   1.2220E+01   7.2190E+02


     TOTAL HARMONIC DISTORTION =   6.6779E+01 PERCENT

**** 04/06/19 11:16:42 ******* PSpice Lite (March 2016) ******* ID# 10813 ****

 diody zad3


 ****     INITIAL TRANSIENT SOLUTION       TEMPERATURE =   27.000 DEG C

 ****     CURRENT STEP                     PARAM CAPACITY =   10.6000E-06


******************************************************************************



 NODE   VOLTAGE     NODE   VOLTAGE     NODE   VOLTAGE     NODE   VOLTAGE


(    1)    0.0000  (    2) 76.02E-24  




    VOLTAGE SOURCE CURRENTS
    NAME         CURRENT

    V1          -7.602E-26

    TOTAL POWER DISSIPATION   0.00E+00  WATTS


**** 04/06/19 11:16:42 ******* PSpice Lite (March 2016) ******* ID# 10813 ****

 diody zad3


 ****     FOURIER ANALYSIS                 TEMPERATURE =   27.000 DEG C

 ****     CURRENT STEP                     PARAM CAPACITY =   10.6000E-06


******************************************************************************



FOURIER COMPONENTS OF TRANSIENT RESPONSE V(R1)



 DC COMPONENT =   8.8169E+00

 HARMONIC   FREQUENCY     FOURIER     NORMALIZED     PHASE     NORMALIZED
    NO         (HZ)      COMPONENT     COMPONENT     (DEG)     PHASE (DEG)

     1    1.0000E+03   2.6230E-01   1.0000E+00  -7.8691E+01   0.0000E+00
     2    2.0000E+03   1.2783E-01   4.8733E-01  -1.5876E+02  -1.3802E+00
     3    3.0000E+03   8.1907E-02   3.1226E-01   1.2150E+02   3.5758E+02
     4    4.0000E+03   5.8150E-02   2.2169E-01   4.2121E+01   3.5689E+02
     5    5.0000E+03   4.3210E-02   1.6473E-01  -3.6917E+01   3.5654E+02
     6    6.0000E+03   3.2801E-02   1.2505E-01  -1.1576E+02   3.5639E+02
     7    7.0000E+03   2.5202E-02   9.6081E-02   1.6563E+02   7.1647E+02
     8    8.0000E+03   1.9478E-02   7.4256E-02   8.7591E+01   7.1712E+02
     9    9.0000E+03   1.5005E-02   5.7206E-02   1.0432E+01   7.1865E+02


     TOTAL HARMONIC DISTORTION =   6.6703E+01 PERCENT

**** 04/06/19 11:16:42 ******* PSpice Lite (March 2016) ******* ID# 10813 ****

 diody zad3


 ****     INITIAL TRANSIENT SOLUTION       TEMPERATURE =   27.000 DEG C

 ****     CURRENT STEP                     PARAM CAPACITY =   10.8000E-06


******************************************************************************



 NODE   VOLTAGE     NODE   VOLTAGE     NODE   VOLTAGE     NODE   VOLTAGE


(    1)    0.0000  (    2) 76.02E-24  




    VOLTAGE SOURCE CURRENTS
    NAME         CURRENT

    V1          -7.602E-26

    TOTAL POWER DISSIPATION   0.00E+00  WATTS


**** 04/06/19 11:16:42 ******* PSpice Lite (March 2016) ******* ID# 10813 ****

 diody zad3


 ****     FOURIER ANALYSIS                 TEMPERATURE =   27.000 DEG C

 ****     CURRENT STEP                     PARAM CAPACITY =   10.8000E-06


******************************************************************************



FOURIER COMPONENTS OF TRANSIENT RESPONSE V(R1)



 DC COMPONENT =   8.8233E+00

 HARMONIC   FREQUENCY     FOURIER     NORMALIZED     PHASE     NORMALIZED
    NO         (HZ)      COMPONENT     COMPONENT     (DEG)     PHASE (DEG)

     1    1.0000E+03   2.5792E-01   1.0000E+00  -7.8958E+01   0.0000E+00
     2    2.0000E+03   1.2591E-01   4.8818E-01  -1.5916E+02  -1.2460E+00
     3    3.0000E+03   8.0696E-02   3.1287E-01   1.2101E+02   3.5788E+02
     4    4.0000E+03   5.7264E-02   2.2202E-01   4.1431E+01   3.5726E+02
     5    5.0000E+03   4.2620E-02   1.6525E-01  -3.7877E+01   3.5691E+02
     6    6.0000E+03   3.2479E-02   1.2593E-01  -1.1689E+02   3.5685E+02
     7    7.0000E+03   2.5033E-02   9.7057E-02   1.6446E+02   7.1716E+02
     8    8.0000E+03   1.9368E-02   7.5093E-02   8.6342E+01   7.1800E+02
     9    9.0000E+03   1.4956E-02   5.7986E-02   8.9362E+00   7.1956E+02


     TOTAL HARMONIC DISTORTION =   6.6865E+01 PERCENT

**** 04/06/19 11:16:42 ******* PSpice Lite (March 2016) ******* ID# 10813 ****

 diody zad3


 ****     INITIAL TRANSIENT SOLUTION       TEMPERATURE =   27.000 DEG C

 ****     CURRENT STEP                     PARAM CAPACITY =   11.0000E-06


******************************************************************************



 NODE   VOLTAGE     NODE   VOLTAGE     NODE   VOLTAGE     NODE   VOLTAGE


(    1)    0.0000  (    2) 76.02E-24  




    VOLTAGE SOURCE CURRENTS
    NAME         CURRENT

    V1          -7.602E-26

    TOTAL POWER DISSIPATION   0.00E+00  WATTS


**** 04/06/19 11:16:42 ******* PSpice Lite (March 2016) ******* ID# 10813 ****

 diody zad3


 ****     FOURIER ANALYSIS                 TEMPERATURE =   27.000 DEG C

 ****     CURRENT STEP                     PARAM CAPACITY =   11.0000E-06


******************************************************************************



FOURIER COMPONENTS OF TRANSIENT RESPONSE V(R1)



 DC COMPONENT =   8.8267E+00

 HARMONIC   FREQUENCY     FOURIER     NORMALIZED     PHASE     NORMALIZED
    NO         (HZ)      COMPONENT     COMPONENT     (DEG)     PHASE (DEG)

     1    1.0000E+03   2.5307E-01   1.0000E+00  -7.9031E+01   0.0000E+00
     2    2.0000E+03   1.2338E-01   4.8751E-01  -1.5940E+02  -1.3424E+00
     3    3.0000E+03   7.9118E-02   3.1263E-01   1.2054E+02   3.5764E+02
     4    4.0000E+03   5.6234E-02   2.2221E-01   4.0846E+01   3.5697E+02
     5    5.0000E+03   4.1841E-02   1.6533E-01  -3.8518E+01   3.5664E+02
     6    6.0000E+03   3.1812E-02   1.2570E-01  -1.1771E+02   3.5648E+02
     7    7.0000E+03   2.4492E-02   9.6779E-02   1.6332E+02   7.1653E+02
     8    8.0000E+03   1.8974E-02   7.4975E-02   8.4897E+01   7.1715E+02
     9    9.0000E+03   1.4652E-02   5.7897E-02   7.3378E+00   7.1862E+02


     TOTAL HARMONIC DISTORTION =   6.6803E+01 PERCENT

**** 04/06/19 11:16:42 ******* PSpice Lite (March 2016) ******* ID# 10813 ****

 diody zad3


 ****     INITIAL TRANSIENT SOLUTION       TEMPERATURE =   27.000 DEG C

 ****     CURRENT STEP                     PARAM CAPACITY =   11.2000E-06


******************************************************************************



 NODE   VOLTAGE     NODE   VOLTAGE     NODE   VOLTAGE     NODE   VOLTAGE


(    1)    0.0000  (    2) 76.02E-24  




    VOLTAGE SOURCE CURRENTS
    NAME         CURRENT

    V1          -7.602E-26

    TOTAL POWER DISSIPATION   0.00E+00  WATTS


**** 04/06/19 11:16:42 ******* PSpice Lite (March 2016) ******* ID# 10813 ****

 diody zad3


 ****     FOURIER ANALYSIS                 TEMPERATURE =   27.000 DEG C

 ****     CURRENT STEP                     PARAM CAPACITY =   11.2000E-06


******************************************************************************



FOURIER COMPONENTS OF TRANSIENT RESPONSE V(R1)



 DC COMPONENT =   8.8331E+00

 HARMONIC   FREQUENCY     FOURIER     NORMALIZED     PHASE     NORMALIZED
    NO         (HZ)      COMPONENT     COMPONENT     (DEG)     PHASE (DEG)

     1    1.0000E+03   2.4936E-01   1.0000E+00  -7.9378E+01   0.0000E+00
     2    2.0000E+03   1.2199E-01   4.8922E-01  -1.5980E+02  -1.0408E+00
     3    3.0000E+03   7.8149E-02   3.1340E-01   1.2020E+02   3.5833E+02
     4    4.0000E+03   5.5369E-02   2.2205E-01   4.0289E+01   3.5780E+02
     5    5.0000E+03   4.1261E-02   1.6547E-01  -3.9469E+01   3.5742E+02
     6    6.0000E+03   3.1574E-02   1.2662E-01  -1.1881E+02   3.5745E+02
     7    7.0000E+03   2.4399E-02   9.7849E-02   1.6237E+02   7.1801E+02
     8    8.0000E+03   1.8867E-02   7.5663E-02   8.3967E+01   7.1899E+02
     9    9.0000E+03   1.4583E-02   5.8482E-02   5.9682E+00   7.2037E+02


     TOTAL HARMONIC DISTORTION =   6.7007E+01 PERCENT

**** 04/06/19 11:16:42 ******* PSpice Lite (March 2016) ******* ID# 10813 ****

 diody zad3


 ****     INITIAL TRANSIENT SOLUTION       TEMPERATURE =   27.000 DEG C

 ****     CURRENT STEP                     PARAM CAPACITY =   11.4000E-06


******************************************************************************



 NODE   VOLTAGE     NODE   VOLTAGE     NODE   VOLTAGE     NODE   VOLTAGE


(    1)    0.0000  (    2) 76.02E-24  




    VOLTAGE SOURCE CURRENTS
    NAME         CURRENT

    V1          -7.602E-26

    TOTAL POWER DISSIPATION   0.00E+00  WATTS


**** 04/06/19 11:16:42 ******* PSpice Lite (March 2016) ******* ID# 10813 ****

 diody zad3


 ****     FOURIER ANALYSIS                 TEMPERATURE =   27.000 DEG C

 ****     CURRENT STEP                     PARAM CAPACITY =   11.4000E-06


******************************************************************************



FOURIER COMPONENTS OF TRANSIENT RESPONSE V(R1)



 DC COMPONENT =   8.8367E+00

 HARMONIC   FREQUENCY     FOURIER     NORMALIZED     PHASE     NORMALIZED
    NO         (HZ)      COMPONENT     COMPONENT     (DEG)     PHASE (DEG)

     1    1.0000E+03   2.4521E-01   1.0000E+00  -7.9521E+01   0.0000E+00
     2    2.0000E+03   1.2004E-01   4.8955E-01  -1.6001E+02  -9.6356E-01
     3    3.0000E+03   7.6875E-02   3.1350E-01   1.1993E+02   3.5849E+02
     4    4.0000E+03   5.4415E-02   2.2191E-01   3.9893E+01   3.5798E+02
     5    5.0000E+03   4.0545E-02   1.6535E-01  -4.0044E+01   3.5756E+02
     6    6.0000E+03   3.1042E-02   1.2659E-01  -1.1953E+02   3.5759E+02
     7    7.0000E+03   2.3973E-02   9.7765E-02   1.6155E+02   7.1820E+02
     8    8.0000E+03   1.8490E-02   7.5405E-02   8.3004E+01   7.1917E+02
     9    9.0000E+03   1.4251E-02   5.8116E-02   4.7521E+00   7.2044E+02


     TOTAL HARMONIC DISTORTION =   6.7020E+01 PERCENT

**** 04/06/19 11:16:42 ******* PSpice Lite (March 2016) ******* ID# 10813 ****

 diody zad3


 ****     INITIAL TRANSIENT SOLUTION       TEMPERATURE =   27.000 DEG C

 ****     CURRENT STEP                     PARAM CAPACITY =   11.6000E-06


******************************************************************************



 NODE   VOLTAGE     NODE   VOLTAGE     NODE   VOLTAGE     NODE   VOLTAGE


(    1)    0.0000  (    2) 76.02E-24  




    VOLTAGE SOURCE CURRENTS
    NAME         CURRENT

    V1          -7.602E-26

    TOTAL POWER DISSIPATION   0.00E+00  WATTS


**** 04/06/19 11:16:42 ******* PSpice Lite (March 2016) ******* ID# 10813 ****

 diody zad3


 ****     FOURIER ANALYSIS                 TEMPERATURE =   27.000 DEG C

 ****     CURRENT STEP                     PARAM CAPACITY =   11.6000E-06


******************************************************************************



FOURIER COMPONENTS OF TRANSIENT RESPONSE V(R1)



 DC COMPONENT =   8.8413E+00

 HARMONIC   FREQUENCY     FOURIER     NORMALIZED     PHASE     NORMALIZED
    NO         (HZ)      COMPONENT     COMPONENT     (DEG)     PHASE (DEG)

     1    1.0000E+03   2.4123E-01   1.0000E+00  -7.9722E+01   0.0000E+00
     2    2.0000E+03   1.1817E-01   4.8987E-01  -1.6033E+02  -8.8324E-01
     3    3.0000E+03   7.5652E-02   3.1361E-01   1.1950E+02   3.5867E+02
     4    4.0000E+03   5.3509E-02   2.2181E-01   3.9304E+01   3.5819E+02
     5    5.0000E+03   3.9881E-02   1.6532E-01  -4.0829E+01   3.5778E+02
     6    6.0000E+03   3.0571E-02   1.2673E-01  -1.2046E+02   3.5788E+02
     7    7.0000E+03   2.3623E-02   9.7928E-02   1.6056E+02   7.1861E+02
     8    8.0000E+03   1.8212E-02   7.5496E-02   8.1892E+01   7.1967E+02
     9    9.0000E+03   1.4042E-02   5.8209E-02   3.4320E+00   7.2093E+02


     TOTAL HARMONIC DISTORTION =   6.7052E+01 PERCENT

**** 04/06/19 11:16:42 ******* PSpice Lite (March 2016) ******* ID# 10813 ****

 diody zad3


 ****     INITIAL TRANSIENT SOLUTION       TEMPERATURE =   27.000 DEG C

 ****     CURRENT STEP                     PARAM CAPACITY =   11.8000E-06


******************************************************************************



 NODE   VOLTAGE     NODE   VOLTAGE     NODE   VOLTAGE     NODE   VOLTAGE


(    1)    0.0000  (    2) 76.02E-24  




    VOLTAGE SOURCE CURRENTS
    NAME         CURRENT

    V1          -7.602E-26

    TOTAL POWER DISSIPATION   0.00E+00  WATTS


**** 04/06/19 11:16:42 ******* PSpice Lite (March 2016) ******* ID# 10813 ****

 diody zad3


 ****     FOURIER ANALYSIS                 TEMPERATURE =   27.000 DEG C

 ****     CURRENT STEP                     PARAM CAPACITY =   11.8000E-06


******************************************************************************



FOURIER COMPONENTS OF TRANSIENT RESPONSE V(R1)



 DC COMPONENT =   8.8448E+00

 HARMONIC   FREQUENCY     FOURIER     NORMALIZED     PHASE     NORMALIZED
    NO         (HZ)      COMPONENT     COMPONENT     (DEG)     PHASE (DEG)

     1    1.0000E+03   2.3676E-01   1.0000E+00  -7.9715E+01   0.0000E+00
     2    2.0000E+03   1.1570E-01   4.8869E-01  -1.6054E+02  -1.1129E+00
     3    3.0000E+03   7.4227E-02   3.1351E-01   1.1898E+02   3.5812E+02
     4    4.0000E+03   5.2739E-02   2.2276E-01   3.8701E+01   3.5756E+02
     5    5.0000E+03   3.9341E-02   1.6617E-01  -4.1353E+01   3.5722E+02
     6    6.0000E+03   3.0079E-02   1.2704E-01  -1.2113E+02   3.5716E+02
     7    7.0000E+03   2.3264E-02   9.8261E-02   1.5945E+02   7.1746E+02
     8    8.0000E+03   1.8059E-02   7.6274E-02   8.0472E+01   7.1820E+02
     9    9.0000E+03   1.3997E-02   5.9120E-02   2.0595E+00   7.1950E+02


     TOTAL HARMONIC DISTORTION =   6.7041E+01 PERCENT

**** 04/06/19 11:16:42 ******* PSpice Lite (March 2016) ******* ID# 10813 ****

 diody zad3


 ****     INITIAL TRANSIENT SOLUTION       TEMPERATURE =   27.000 DEG C

 ****     CURRENT STEP                     PARAM CAPACITY =   12.0000E-06


******************************************************************************



 NODE   VOLTAGE     NODE   VOLTAGE     NODE   VOLTAGE     NODE   VOLTAGE


(    1)    0.0000  (    2) 76.02E-24  




    VOLTAGE SOURCE CURRENTS
    NAME         CURRENT

    V1          -7.602E-26

    TOTAL POWER DISSIPATION   0.00E+00  WATTS


**** 04/06/19 11:16:42 ******* PSpice Lite (March 2016) ******* ID# 10813 ****

 diody zad3


 ****     FOURIER ANALYSIS                 TEMPERATURE =   27.000 DEG C

 ****     CURRENT STEP                     PARAM CAPACITY =   12.0000E-06


******************************************************************************



FOURIER COMPONENTS OF TRANSIENT RESPONSE V(R1)



 DC COMPONENT =   8.8493E+00

 HARMONIC   FREQUENCY     FOURIER     NORMALIZED     PHASE     NORMALIZED
    NO         (HZ)      COMPONENT     COMPONENT     (DEG)     PHASE (DEG)

     1    1.0000E+03   2.3317E-01   1.0000E+00  -7.9946E+01   0.0000E+00
     2    2.0000E+03   1.1409E-01   4.8932E-01  -1.6087E+02  -9.7911E-01
     3    3.0000E+03   7.3143E-02   3.1369E-01   1.1858E+02   3.5842E+02
     4    4.0000E+03   5.1882E-02   2.2251E-01   3.8130E+01   3.5791E+02
     5    5.0000E+03   3.8707E-02   1.6601E-01  -4.2179E+01   3.5755E+02
     6    6.0000E+03   2.9647E-02   1.2715E-01  -1.2211E+02   3.5757E+02
     7    7.0000E+03   2.2935E-02   9.8363E-02   1.5844E+02   7.1806E+02
     8    8.0000E+03   1.7759E-02   7.6165E-02   7.9361E+01   7.1893E+02
     9    9.0000E+03   1.3744E-02   5.8943E-02   6.7597E-01   7.2019E+02


     TOTAL HARMONIC DISTORTION =   6.7084E+01 PERCENT

**** 04/06/19 11:16:42 ******* PSpice Lite (March 2016) ******* ID# 10813 ****

 diody zad3


 ****     INITIAL TRANSIENT SOLUTION       TEMPERATURE =   27.000 DEG C

 ****     CURRENT STEP                     PARAM CAPACITY =   12.2000E-06


******************************************************************************



 NODE   VOLTAGE     NODE   VOLTAGE     NODE   VOLTAGE     NODE   VOLTAGE


(    1)    0.0000  (    2) 76.02E-24  




    VOLTAGE SOURCE CURRENTS
    NAME         CURRENT

    V1          -7.602E-26

    TOTAL POWER DISSIPATION   0.00E+00  WATTS


**** 04/06/19 11:16:42 ******* PSpice Lite (March 2016) ******* ID# 10813 ****

 diody zad3


 ****     FOURIER ANALYSIS                 TEMPERATURE =   27.000 DEG C

 ****     CURRENT STEP                     PARAM CAPACITY =   12.2000E-06


******************************************************************************



FOURIER COMPONENTS OF TRANSIENT RESPONSE V(R1)



 DC COMPONENT =   8.8532E+00

 HARMONIC   FREQUENCY     FOURIER     NORMALIZED     PHASE     NORMALIZED
    NO         (HZ)      COMPONENT     COMPONENT     (DEG)     PHASE (DEG)

     1    1.0000E+03   2.2955E-01   1.0000E+00  -8.0084E+01   0.0000E+00
     2    2.0000E+03   1.1244E-01   4.8982E-01  -1.6110E+02  -9.3705E-01
     3    3.0000E+03   7.2157E-02   3.1434E-01   1.1825E+02   3.5850E+02
     4    4.0000E+03   5.1249E-02   2.2325E-01   3.7658E+01   3.5799E+02
     5    5.0000E+03   3.8318E-02   1.6693E-01  -4.2820E+01   3.5760E+02
     6    6.0000E+03   2.9436E-02   1.2823E-01  -1.2291E+02   3.5759E+02
     7    7.0000E+03   2.2838E-02   9.9487E-02   1.5747E+02   7.1805E+02
     8    8.0000E+03   1.7731E-02   7.7243E-02   7.8176E+01   7.1884E+02
     9    9.0000E+03   1.3766E-02   5.9968E-02  -7.9964E-01   7.1995E+02


     TOTAL HARMONIC DISTORTION =   6.7256E+01 PERCENT

**** 04/06/19 11:16:42 ******* PSpice Lite (March 2016) ******* ID# 10813 ****

 diody zad3


 ****     INITIAL TRANSIENT SOLUTION       TEMPERATURE =   27.000 DEG C

 ****     CURRENT STEP                     PARAM CAPACITY =   12.4000E-06


******************************************************************************



 NODE   VOLTAGE     NODE   VOLTAGE     NODE   VOLTAGE     NODE   VOLTAGE


(    1)    0.0000  (    2) 76.02E-24  




    VOLTAGE SOURCE CURRENTS
    NAME         CURRENT

    V1          -7.602E-26

    TOTAL POWER DISSIPATION   0.00E+00  WATTS


**** 04/06/19 11:16:42 ******* PSpice Lite (March 2016) ******* ID# 10813 ****

 diody zad3


 ****     FOURIER ANALYSIS                 TEMPERATURE =   27.000 DEG C

 ****     CURRENT STEP                     PARAM CAPACITY =   12.4000E-06


******************************************************************************



FOURIER COMPONENTS OF TRANSIENT RESPONSE V(R1)



 DC COMPONENT =   8.8561E+00

 HARMONIC   FREQUENCY     FOURIER     NORMALIZED     PHASE     NORMALIZED
    NO         (HZ)      COMPONENT     COMPONENT     (DEG)     PHASE (DEG)

     1    1.0000E+03   2.2571E-01   1.0000E+00  -8.0095E+01   0.0000E+00
     2    2.0000E+03   1.1044E-01   4.8930E-01  -1.6124E+02  -1.0469E+00
     3    3.0000E+03   7.0974E-02   3.1445E-01   1.1795E+02   3.5823E+02
     4    4.0000E+03   5.0548E-02   2.2395E-01   3.7299E+01   3.5768E+02
     5    5.0000E+03   3.7838E-02   1.6764E-01  -4.3171E+01   3.5730E+02
     6    6.0000E+03   2.9063E-02   1.2876E-01  -1.2339E+02   3.5718E+02
     7    7.0000E+03   2.2598E-02   1.0012E-01   1.5670E+02   7.1737E+02
     8    8.0000E+03   1.7645E-02   7.8177E-02   7.7153E+01   7.1791E+02
     9    9.0000E+03   1.3772E-02   6.1019E-02  -1.9564E+00   7.1890E+02


     TOTAL HARMONIC DISTORTION =   6.7305E+01 PERCENT

**** 04/06/19 11:16:42 ******* PSpice Lite (March 2016) ******* ID# 10813 ****

 diody zad3


 ****     INITIAL TRANSIENT SOLUTION       TEMPERATURE =   27.000 DEG C

 ****     CURRENT STEP                     PARAM CAPACITY =   12.6000E-06


******************************************************************************



 NODE   VOLTAGE     NODE   VOLTAGE     NODE   VOLTAGE     NODE   VOLTAGE


(    1)    0.0000  (    2) 76.02E-24  




    VOLTAGE SOURCE CURRENTS
    NAME         CURRENT

    V1          -7.602E-26

    TOTAL POWER DISSIPATION   0.00E+00  WATTS


**** 04/06/19 11:16:42 ******* PSpice Lite (March 2016) ******* ID# 10813 ****

 diody zad3


 ****     FOURIER ANALYSIS                 TEMPERATURE =   27.000 DEG C

 ****     CURRENT STEP                     PARAM CAPACITY =   12.6000E-06


******************************************************************************



FOURIER COMPONENTS OF TRANSIENT RESPONSE V(R1)



 DC COMPONENT =   8.8602E+00

 HARMONIC   FREQUENCY     FOURIER     NORMALIZED     PHASE     NORMALIZED
    NO         (HZ)      COMPONENT     COMPONENT     (DEG)     PHASE (DEG)

     1    1.0000E+03   2.2280E-01   1.0000E+00  -8.0417E+01   0.0000E+00
     2    2.0000E+03   1.0939E-01   4.9097E-01  -1.6158E+02  -7.4214E-01
     3    3.0000E+03   7.0195E-02   3.1506E-01   1.1767E+02   3.5892E+02
     4    4.0000E+03   4.9809E-02   2.2356E-01   3.6805E+01   3.5847E+02
     5    5.0000E+03   3.7323E-02   1.6752E-01  -4.4060E+01   3.5803E+02
     6    6.0000E+03   2.8810E-02   1.2931E-01  -1.2441E+02   3.5809E+02
     7    7.0000E+03   2.2417E-02   1.0062E-01   1.5585E+02   7.1877E+02
     8    8.0000E+03   1.7405E-02   7.8118E-02   7.6284E+01   7.1962E+02
     9    9.0000E+03   1.3541E-02   6.0778E-02  -3.2426E+00   7.2051E+02


     TOTAL HARMONIC DISTORTION =   6.7453E+01 PERCENT

**** 04/06/19 11:16:42 ******* PSpice Lite (March 2016) ******* ID# 10813 ****

 diody zad3


 ****     INITIAL TRANSIENT SOLUTION       TEMPERATURE =   27.000 DEG C

 ****     CURRENT STEP                     PARAM CAPACITY =   12.8000E-06


******************************************************************************



 NODE   VOLTAGE     NODE   VOLTAGE     NODE   VOLTAGE     NODE   VOLTAGE


(    1)    0.0000  (    2) 76.02E-24  




    VOLTAGE SOURCE CURRENTS
    NAME         CURRENT

    V1          -7.602E-26

    TOTAL POWER DISSIPATION   0.00E+00  WATTS


**** 04/06/19 11:16:42 ******* PSpice Lite (March 2016) ******* ID# 10813 ****

 diody zad3


 ****     FOURIER ANALYSIS                 TEMPERATURE =   27.000 DEG C

 ****     CURRENT STEP                     PARAM CAPACITY =   12.8000E-06


******************************************************************************



FOURIER COMPONENTS OF TRANSIENT RESPONSE V(R1)



 DC COMPONENT =   8.8618E+00

 HARMONIC   FREQUENCY     FOURIER     NORMALIZED     PHASE     NORMALIZED
    NO         (HZ)      COMPONENT     COMPONENT     (DEG)     PHASE (DEG)

     1    1.0000E+03   2.1877E-01   1.0000E+00  -8.0367E+01   0.0000E+00
     2    2.0000E+03   1.0704E-01   4.8927E-01  -1.6177E+02  -1.0317E+00
     3    3.0000E+03   6.8808E-02   3.1452E-01   1.1715E+02   3.5825E+02
     4    4.0000E+03   4.9027E-02   2.2410E-01   3.6233E+01   3.5770E+02
     5    5.0000E+03   3.6703E-02   1.6777E-01  -4.4496E+01   3.5734E+02
     6    6.0000E+03   2.8182E-02   1.2882E-01  -1.2500E+02   3.5721E+02
     7    7.0000E+03   2.1906E-02   1.0013E-01   1.5480E+02   7.1737E+02
     8    8.0000E+03   1.7099E-02   7.8161E-02   7.4959E+01   7.1790E+02
     9    9.0000E+03   1.3332E-02   6.0940E-02  -4.4046E+00   7.1890E+02


     TOTAL HARMONIC DISTORTION =   6.7314E+01 PERCENT

**** 04/06/19 11:16:42 ******* PSpice Lite (March 2016) ******* ID# 10813 ****

 diody zad3


 ****     INITIAL TRANSIENT SOLUTION       TEMPERATURE =   27.000 DEG C

 ****     CURRENT STEP                     PARAM CAPACITY =   13.0000E-06


******************************************************************************



 NODE   VOLTAGE     NODE   VOLTAGE     NODE   VOLTAGE     NODE   VOLTAGE


(    1)    0.0000  (    2) 76.02E-24  




    VOLTAGE SOURCE CURRENTS
    NAME         CURRENT

    V1          -7.602E-26

    TOTAL POWER DISSIPATION   0.00E+00  WATTS


**** 04/06/19 11:16:42 ******* PSpice Lite (March 2016) ******* ID# 10813 ****

 diody zad3


 ****     FOURIER ANALYSIS                 TEMPERATURE =   27.000 DEG C

 ****     CURRENT STEP                     PARAM CAPACITY =   13.0000E-06


******************************************************************************



FOURIER COMPONENTS OF TRANSIENT RESPONSE V(R1)



 DC COMPONENT =   8.8653E+00

 HARMONIC   FREQUENCY     FOURIER     NORMALIZED     PHASE     NORMALIZED
    NO         (HZ)      COMPONENT     COMPONENT     (DEG)     PHASE (DEG)

     1    1.0000E+03   2.1516E-01   1.0000E+00  -8.0402E+01   0.0000E+00
     2    2.0000E+03   1.0505E-01   4.8823E-01  -1.6198E+02  -1.1782E+00
     3    3.0000E+03   6.7563E-02   3.1401E-01   1.1670E+02   3.5791E+02
     4    4.0000E+03   4.8214E-02   2.2408E-01   3.5710E+01   3.5732E+02
     5    5.0000E+03   3.6045E-02   1.6753E-01  -4.4996E+01   3.5702E+02
     6    6.0000E+03   2.7572E-02   1.2814E-01  -1.2562E+02   3.5679E+02
     7    7.0000E+03   2.1397E-02   9.9444E-02   1.5388E+02   7.1670E+02
     8    8.0000E+03   1.6729E-02   7.7748E-02   7.3876E+01   7.1709E+02
     9    9.0000E+03   1.3039E-02   6.0598E-02  -5.4152E+00   7.1821E+02


     TOTAL HARMONIC DISTORTION =   6.7177E+01 PERCENT

**** 04/06/19 11:16:42 ******* PSpice Lite (March 2016) ******* ID# 10813 ****

 diody zad3


 ****     INITIAL TRANSIENT SOLUTION       TEMPERATURE =   27.000 DEG C

 ****     CURRENT STEP                     PARAM CAPACITY =   13.2000E-06


******************************************************************************



 NODE   VOLTAGE     NODE   VOLTAGE     NODE   VOLTAGE     NODE   VOLTAGE


(    1)    0.0000  (    2) 76.02E-24  




    VOLTAGE SOURCE CURRENTS
    NAME         CURRENT

    V1          -7.602E-26

    TOTAL POWER DISSIPATION   0.00E+00  WATTS


**** 04/06/19 11:16:42 ******* PSpice Lite (March 2016) ******* ID# 10813 ****

 diody zad3


 ****     FOURIER ANALYSIS                 TEMPERATURE =   27.000 DEG C

 ****     CURRENT STEP                     PARAM CAPACITY =   13.2000E-06


******************************************************************************



FOURIER COMPONENTS OF TRANSIENT RESPONSE V(R1)



 DC COMPONENT =   8.8690E+00

 HARMONIC   FREQUENCY     FOURIER     NORMALIZED     PHASE     NORMALIZED
    NO         (HZ)      COMPONENT     COMPONENT     (DEG)     PHASE (DEG)

     1    1.0000E+03   2.1192E-01   1.0000E+00  -8.0545E+01   0.0000E+00
     2    2.0000E+03   1.0341E-01   4.8795E-01  -1.6228E+02  -1.1877E+00
     3    3.0000E+03   6.6487E-02   3.1373E-01   1.1624E+02   3.5788E+02
     4    4.0000E+03   4.7433E-02   2.2382E-01   3.5125E+01   3.5731E+02
     5    5.0000E+03   3.5427E-02   1.6717E-01  -4.5689E+01   3.5704E+02
     6    6.0000E+03   2.7060E-02   1.2769E-01  -1.2644E+02   3.5683E+02
     7    7.0000E+03   2.0975E-02   9.8973E-02   1.5292E+02   7.1674E+02
     8    8.0000E+03   1.6387E-02   7.7325E-02   7.2809E+01   7.1717E+02
     9    9.0000E+03   1.2757E-02   6.0198E-02  -6.5339E+00   7.1837E+02


     TOTAL HARMONIC DISTORTION =   6.7102E+01 PERCENT

**** 04/06/19 11:16:42 ******* PSpice Lite (March 2016) ******* ID# 10813 ****

 diody zad3


 ****     INITIAL TRANSIENT SOLUTION       TEMPERATURE =   27.000 DEG C

 ****     CURRENT STEP                     PARAM CAPACITY =   13.4000E-06


******************************************************************************



 NODE   VOLTAGE     NODE   VOLTAGE     NODE   VOLTAGE     NODE   VOLTAGE


(    1)    0.0000  (    2) 76.02E-24  




    VOLTAGE SOURCE CURRENTS
    NAME         CURRENT

    V1          -7.602E-26

    TOTAL POWER DISSIPATION   0.00E+00  WATTS


**** 04/06/19 11:16:42 ******* PSpice Lite (March 2016) ******* ID# 10813 ****

 diody zad3


 ****     FOURIER ANALYSIS                 TEMPERATURE =   27.000 DEG C

 ****     CURRENT STEP                     PARAM CAPACITY =   13.4000E-06


******************************************************************************



FOURIER COMPONENTS OF TRANSIENT RESPONSE V(R1)



 DC COMPONENT =   8.8720E+00

 HARMONIC   FREQUENCY     FOURIER     NORMALIZED     PHASE     NORMALIZED
    NO         (HZ)      COMPONENT     COMPONENT     (DEG)     PHASE (DEG)

     1    1.0000E+03   2.0920E-01   1.0000E+00  -8.0733E+01   0.0000E+00
     2    2.0000E+03   1.0237E-01   4.8935E-01  -1.6248E+02  -1.0138E+00
     3    3.0000E+03   6.5874E-02   3.1489E-01   1.1607E+02   3.5826E+02
     4    4.0000E+03   4.7012E-02   2.2472E-01   3.4809E+01   3.5774E+02
     5    5.0000E+03   3.5246E-02   1.6848E-01  -4.6250E+01   3.5742E+02
     6    6.0000E+03   2.7104E-02   1.2956E-01  -1.2711E+02   3.5729E+02
     7    7.0000E+03   2.1118E-02   1.0095E-01   1.5228E+02   7.1742E+02
     8    8.0000E+03   1.6541E-02   7.9070E-02   7.2059E+01   7.1793E+02
     9    9.0000E+03   1.2944E-02   6.1875E-02  -7.6678E+00   7.1893E+02


     TOTAL HARMONIC DISTORTION =   6.7421E+01 PERCENT

**** 04/06/19 11:16:42 ******* PSpice Lite (March 2016) ******* ID# 10813 ****

 diody zad3


 ****     INITIAL TRANSIENT SOLUTION       TEMPERATURE =   27.000 DEG C

 ****     CURRENT STEP                     PARAM CAPACITY =   13.6000E-06


******************************************************************************



 NODE   VOLTAGE     NODE   VOLTAGE     NODE   VOLTAGE     NODE   VOLTAGE


(    1)    0.0000  (    2) 76.02E-24  




    VOLTAGE SOURCE CURRENTS
    NAME         CURRENT

    V1          -7.602E-26

    TOTAL POWER DISSIPATION   0.00E+00  WATTS


**** 04/06/19 11:16:42 ******* PSpice Lite (March 2016) ******* ID# 10813 ****

 diody zad3


 ****     FOURIER ANALYSIS                 TEMPERATURE =   27.000 DEG C

 ****     CURRENT STEP                     PARAM CAPACITY =   13.6000E-06


******************************************************************************



FOURIER COMPONENTS OF TRANSIENT RESPONSE V(R1)



 DC COMPONENT =   8.8741E+00

 HARMONIC   FREQUENCY     FOURIER     NORMALIZED     PHASE     NORMALIZED
    NO         (HZ)      COMPONENT     COMPONENT     (DEG)     PHASE (DEG)

     1    1.0000E+03   2.0593E-01   1.0000E+00  -8.0812E+01   0.0000E+00
     2    2.0000E+03   1.0057E-01   4.8838E-01  -1.6272E+02  -1.0994E+00
     3    3.0000E+03   6.4663E-02   3.1400E-01   1.1563E+02   3.5806E+02
     4    4.0000E+03   4.6113E-02   2.2392E-01   3.4267E+01   3.5752E+02
     5    5.0000E+03   3.4465E-02   1.6736E-01  -4.6837E+01   3.5722E+02
     6    6.0000E+03   2.6367E-02   1.2804E-01  -1.2784E+02   3.5703E+02
     7    7.0000E+03   2.0453E-02   9.9320E-02   1.5132E+02   7.1700E+02
     8    8.0000E+03   1.5969E-02   7.7544E-02   7.0938E+01   7.1743E+02
     9    9.0000E+03   1.2429E-02   6.0353E-02  -8.7872E+00   7.1852E+02


     TOTAL HARMONIC DISTORTION =   6.7170E+01 PERCENT

**** 04/06/19 11:16:42 ******* PSpice Lite (March 2016) ******* ID# 10813 ****

 diody zad3


 ****     INITIAL TRANSIENT SOLUTION       TEMPERATURE =   27.000 DEG C

 ****     CURRENT STEP                     PARAM CAPACITY =   13.8000E-06


******************************************************************************



 NODE   VOLTAGE     NODE   VOLTAGE     NODE   VOLTAGE     NODE   VOLTAGE


(    1)    0.0000  (    2) 76.02E-24  




    VOLTAGE SOURCE CURRENTS
    NAME         CURRENT

    V1          -7.602E-26

    TOTAL POWER DISSIPATION   0.00E+00  WATTS


**** 04/06/19 11:16:42 ******* PSpice Lite (March 2016) ******* ID# 10813 ****

 diody zad3


 ****     FOURIER ANALYSIS                 TEMPERATURE =   27.000 DEG C

 ****     CURRENT STEP                     PARAM CAPACITY =   13.8000E-06


******************************************************************************



FOURIER COMPONENTS OF TRANSIENT RESPONSE V(R1)



 DC COMPONENT =   8.8797E+00

 HARMONIC   FREQUENCY     FOURIER     NORMALIZED     PHASE     NORMALIZED
    NO         (HZ)      COMPONENT     COMPONENT     (DEG)     PHASE (DEG)

     1    1.0000E+03   2.0403E-01   1.0000E+00  -8.1277E+01   0.0000E+00
     2    2.0000E+03   1.0022E-01   4.9122E-01  -1.6309E+02  -5.3612E-01
     3    3.0000E+03   6.4200E-02   3.1466E-01   1.1551E+02   3.5934E+02
     4    4.0000E+03   4.5431E-02   2.2267E-01   3.3878E+01   3.5899E+02
     5    5.0000E+03   3.4009E-02   1.6669E-01  -4.7792E+01   3.5859E+02
     6    6.0000E+03   2.6250E-02   1.2866E-01  -1.2882E+02   3.5884E+02
     7    7.0000E+03   2.0378E-02   9.9879E-02   1.5085E+02   7.1979E+02
     8    8.0000E+03   1.5755E-02   7.7221E-02   7.0573E+01   7.2079E+02
     9    9.0000E+03   1.2235E-02   5.9967E-02  -9.8139E+00   7.2168E+02


     TOTAL HARMONIC DISTORTION =   6.7361E+01 PERCENT

**** 04/06/19 11:16:42 ******* PSpice Lite (March 2016) ******* ID# 10813 ****

 diody zad3


 ****     INITIAL TRANSIENT SOLUTION       TEMPERATURE =   27.000 DEG C

 ****     CURRENT STEP                     PARAM CAPACITY =   14.0000E-06


******************************************************************************



 NODE   VOLTAGE     NODE   VOLTAGE     NODE   VOLTAGE     NODE   VOLTAGE


(    1)    0.0000  (    2) 76.02E-24  




    VOLTAGE SOURCE CURRENTS
    NAME         CURRENT

    V1          -7.602E-26

    TOTAL POWER DISSIPATION   0.00E+00  WATTS


**** 04/06/19 11:16:42 ******* PSpice Lite (March 2016) ******* ID# 10813 ****

 diody zad3


 ****     FOURIER ANALYSIS                 TEMPERATURE =   27.000 DEG C

 ****     CURRENT STEP                     PARAM CAPACITY =   14.0000E-06


******************************************************************************



FOURIER COMPONENTS OF TRANSIENT RESPONSE V(R1)



 DC COMPONENT =   8.8798E+00

 HARMONIC   FREQUENCY     FOURIER     NORMALIZED     PHASE     NORMALIZED
    NO         (HZ)      COMPONENT     COMPONENT     (DEG)     PHASE (DEG)

     1    1.0000E+03   2.0017E-01   1.0000E+00  -8.1039E+01   0.0000E+00
     2    2.0000E+03   9.7763E-02   4.8839E-01  -1.6315E+02  -1.0733E+00
     3    3.0000E+03   6.2861E-02   3.1403E-01   1.1499E+02   3.5811E+02
     4    4.0000E+03   4.4831E-02   2.2396E-01   3.3419E+01   3.5757E+02
     5    5.0000E+03   3.3510E-02   1.6740E-01  -4.7904E+01   3.5729E+02
     6    6.0000E+03   2.5639E-02   1.2808E-01  -1.2913E+02   3.5710E+02
     7    7.0000E+03   1.9893E-02   9.9381E-02   1.4978E+02   7.1706E+02
     8    8.0000E+03   1.5536E-02   7.7611E-02   6.9160E+01   7.1747E+02
     9    9.0000E+03   1.2094E-02   6.0416E-02  -1.0830E+01   7.1852E+02


     TOTAL HARMONIC DISTORTION =   6.7177E+01 PERCENT

**** 04/06/19 11:16:42 ******* PSpice Lite (March 2016) ******* ID# 10813 ****

 diody zad3


 ****     INITIAL TRANSIENT SOLUTION       TEMPERATURE =   27.000 DEG C

 ****     CURRENT STEP                     PARAM CAPACITY =   14.2000E-06


******************************************************************************



 NODE   VOLTAGE     NODE   VOLTAGE     NODE   VOLTAGE     NODE   VOLTAGE


(    1)    0.0000  (    2) 76.02E-24  




    VOLTAGE SOURCE CURRENTS
    NAME         CURRENT

    V1          -7.602E-26

    TOTAL POWER DISSIPATION   0.00E+00  WATTS


**** 04/06/19 11:16:42 ******* PSpice Lite (March 2016) ******* ID# 10813 ****

 diody zad3


 ****     FOURIER ANALYSIS                 TEMPERATURE =   27.000 DEG C

 ****     CURRENT STEP                     PARAM CAPACITY =   14.2000E-06


******************************************************************************



FOURIER COMPONENTS OF TRANSIENT RESPONSE V(R1)



 DC COMPONENT =   8.8833E+00

 HARMONIC   FREQUENCY     FOURIER     NORMALIZED     PHASE     NORMALIZED
    NO         (HZ)      COMPONENT     COMPONENT     (DEG)     PHASE (DEG)

     1    1.0000E+03   1.9813E-01   1.0000E+00  -8.1353E+01   0.0000E+00
     2    2.0000E+03   9.7197E-02   4.9058E-01  -1.6337E+02  -6.6107E-01
     3    3.0000E+03   6.2355E-02   3.1472E-01   1.1498E+02   3.5904E+02
     4    4.0000E+03   4.4253E-02   2.2336E-01   3.3231E+01   3.5864E+02
     5    5.0000E+03   3.3146E-02   1.6730E-01  -4.8481E+01   3.5828E+02
     6    6.0000E+03   2.5550E-02   1.2896E-01  -1.2971E+02   3.5841E+02
     7    7.0000E+03   1.9857E-02   1.0022E-01   1.4959E+02   7.1906E+02
     8    8.0000E+03   1.5417E-02   7.7816E-02   6.9020E+01   7.1984E+02
     9    9.0000E+03   1.2001E-02   6.0574E-02  -1.1475E+01   7.2070E+02


     TOTAL HARMONIC DISTORTION =   6.7379E+01 PERCENT

**** 04/06/19 11:16:42 ******* PSpice Lite (March 2016) ******* ID# 10813 ****

 diody zad3


 ****     INITIAL TRANSIENT SOLUTION       TEMPERATURE =   27.000 DEG C

 ****     CURRENT STEP                     PARAM CAPACITY =   14.4000E-06


******************************************************************************



 NODE   VOLTAGE     NODE   VOLTAGE     NODE   VOLTAGE     NODE   VOLTAGE


(    1)    0.0000  (    2) 76.02E-24  




    VOLTAGE SOURCE CURRENTS
    NAME         CURRENT

    V1          -7.602E-26

    TOTAL POWER DISSIPATION   0.00E+00  WATTS


**** 04/06/19 11:16:42 ******* PSpice Lite (March 2016) ******* ID# 10813 ****

 diody zad3


 ****     FOURIER ANALYSIS                 TEMPERATURE =   27.000 DEG C

 ****     CURRENT STEP                     PARAM CAPACITY =   14.4000E-06


******************************************************************************



FOURIER COMPONENTS OF TRANSIENT RESPONSE V(R1)



 DC COMPONENT =   8.8858E+00

 HARMONIC   FREQUENCY     FOURIER     NORMALIZED     PHASE     NORMALIZED
    NO         (HZ)      COMPONENT     COMPONENT     (DEG)     PHASE (DEG)

     1    1.0000E+03   1.9544E-01   1.0000E+00  -8.1464E+01   0.0000E+00
     2    2.0000E+03   9.5894E-02   4.9065E-01  -1.6357E+02  -6.4276E-01
     3    3.0000E+03   6.1525E-02   3.1480E-01   1.1468E+02   3.5907E+02
     4    4.0000E+03   4.3670E-02   2.2344E-01   3.2826E+01   3.5868E+02
     5    5.0000E+03   3.2719E-02   1.6741E-01  -4.8996E+01   3.5832E+02
     6    6.0000E+03   2.5231E-02   1.2910E-01  -1.3033E+02   3.5845E+02
     7    7.0000E+03   1.9615E-02   1.0036E-01   1.4886E+02   7.1910E+02
     8    8.0000E+03   1.5234E-02   7.7946E-02   6.8164E+01   7.1988E+02
     9    9.0000E+03   1.1865E-02   6.0706E-02  -1.2469E+01   7.2071E+02


     TOTAL HARMONIC DISTORTION =   6.7400E+01 PERCENT

**** 04/06/19 11:16:42 ******* PSpice Lite (March 2016) ******* ID# 10813 ****

 diody zad3


 ****     INITIAL TRANSIENT SOLUTION       TEMPERATURE =   27.000 DEG C

 ****     CURRENT STEP                     PARAM CAPACITY =   14.6000E-06


******************************************************************************



 NODE   VOLTAGE     NODE   VOLTAGE     NODE   VOLTAGE     NODE   VOLTAGE


(    1)    0.0000  (    2) 76.02E-24  




    VOLTAGE SOURCE CURRENTS
    NAME         CURRENT

    V1          -7.602E-26

    TOTAL POWER DISSIPATION   0.00E+00  WATTS


**** 04/06/19 11:16:42 ******* PSpice Lite (March 2016) ******* ID# 10813 ****

 diody zad3


 ****     FOURIER ANALYSIS                 TEMPERATURE =   27.000 DEG C

 ****     CURRENT STEP                     PARAM CAPACITY =   14.6000E-06


******************************************************************************



FOURIER COMPONENTS OF TRANSIENT RESPONSE V(R1)



 DC COMPONENT =   8.8882E+00

 HARMONIC   FREQUENCY     FOURIER     NORMALIZED     PHASE     NORMALIZED
    NO         (HZ)      COMPONENT     COMPONENT     (DEG)     PHASE (DEG)

     1    1.0000E+03   1.9284E-01   1.0000E+00  -8.1574E+01   0.0000E+00
     2    2.0000E+03   9.4630E-02   4.9072E-01  -1.6377E+02  -6.2191E-01
     3    3.0000E+03   6.0718E-02   3.1486E-01   1.1439E+02   3.5911E+02
     4    4.0000E+03   4.3101E-02   2.2351E-01   3.2430E+01   3.5873E+02
     5    5.0000E+03   3.2302E-02   1.6751E-01  -4.9501E+01   3.5837E+02
     6    6.0000E+03   2.4920E-02   1.2923E-01  -1.3094E+02   3.5850E+02
     7    7.0000E+03   1.9378E-02   1.0049E-01   1.4814E+02   7.1916E+02
     8    8.0000E+03   1.5053E-02   7.8061E-02   6.7327E+01   7.1992E+02
     9    9.0000E+03   1.1729E-02   6.0824E-02  -1.3446E+01   7.2072E+02


     TOTAL HARMONIC DISTORTION =   6.7420E+01 PERCENT

**** 04/06/19 11:16:42 ******* PSpice Lite (March 2016) ******* ID# 10813 ****

 diody zad3


 ****     INITIAL TRANSIENT SOLUTION       TEMPERATURE =   27.000 DEG C

 ****     CURRENT STEP                     PARAM CAPACITY =   14.8000E-06


******************************************************************************



 NODE   VOLTAGE     NODE   VOLTAGE     NODE   VOLTAGE     NODE   VOLTAGE


(    1)    0.0000  (    2) 76.02E-24  




    VOLTAGE SOURCE CURRENTS
    NAME         CURRENT

    V1          -7.602E-26

    TOTAL POWER DISSIPATION   0.00E+00  WATTS


**** 04/06/19 11:16:42 ******* PSpice Lite (March 2016) ******* ID# 10813 ****

 diody zad3


 ****     FOURIER ANALYSIS                 TEMPERATURE =   27.000 DEG C

 ****     CURRENT STEP                     PARAM CAPACITY =   14.8000E-06


******************************************************************************



FOURIER COMPONENTS OF TRANSIENT RESPONSE V(R1)



 DC COMPONENT =   8.8891E+00

 HARMONIC   FREQUENCY     FOURIER     NORMALIZED     PHASE     NORMALIZED
    NO         (HZ)      COMPONENT     COMPONENT     (DEG)     PHASE (DEG)

     1    1.0000E+03   1.8979E-01   1.0000E+00  -8.1519E+01   0.0000E+00
     2    2.0000E+03   9.2855E-02   4.8925E-01  -1.6393E+02  -8.9237E-01
     3    3.0000E+03   5.9686E-02   3.1448E-01   1.1393E+02   3.5848E+02
     4    4.0000E+03   4.2522E-02   2.2405E-01   3.1938E+01   3.5801E+02
     5    5.0000E+03   3.1826E-02   1.6769E-01  -4.9895E+01   3.5770E+02
     6    6.0000E+03   2.4429E-02   1.2871E-01  -1.3153E+02   3.5758E+02
     7    7.0000E+03   1.8977E-02   9.9989E-02   1.4709E+02   7.1772E+02
     8    8.0000E+03   1.4799E-02   7.7975E-02   6.6031E+01   7.1818E+02
     9    9.0000E+03   1.1522E-02   6.0707E-02  -1.4617E+01   7.1905E+02


     TOTAL HARMONIC DISTORTION =   6.7298E+01 PERCENT

**** 04/06/19 11:16:42 ******* PSpice Lite (March 2016) ******* ID# 10813 ****

 diody zad3


 ****     INITIAL TRANSIENT SOLUTION       TEMPERATURE =   27.000 DEG C

 ****     CURRENT STEP                     PARAM CAPACITY =   15.0000E-06


******************************************************************************



 NODE   VOLTAGE     NODE   VOLTAGE     NODE   VOLTAGE     NODE   VOLTAGE


(    1)    0.0000  (    2) 76.02E-24  




    VOLTAGE SOURCE CURRENTS
    NAME         CURRENT

    V1          -7.602E-26

    TOTAL POWER DISSIPATION   0.00E+00  WATTS


**** 04/06/19 11:16:42 ******* PSpice Lite (March 2016) ******* ID# 10813 ****

 diody zad3


 ****     FOURIER ANALYSIS                 TEMPERATURE =   27.000 DEG C

 ****     CURRENT STEP                     PARAM CAPACITY =   15.0000E-06


******************************************************************************



FOURIER COMPONENTS OF TRANSIENT RESPONSE V(R1)



 DC COMPONENT =   8.8917E+00

 HARMONIC   FREQUENCY     FOURIER     NORMALIZED     PHASE     NORMALIZED
    NO         (HZ)      COMPONENT     COMPONENT     (DEG)     PHASE (DEG)

     1    1.0000E+03   1.8685E-01   1.0000E+00  -8.1473E+01   0.0000E+00
     2    2.0000E+03   9.1136E-02   4.8776E-01  -1.6412E+02  -1.1728E+00
     3    3.0000E+03   5.8708E-02   3.1420E-01   1.1343E+02   3.5785E+02
     4    4.0000E+03   4.2000E-02   2.2478E-01   3.1412E+01   3.5731E+02
     5    5.0000E+03   3.1411E-02   1.6811E-01  -5.0293E+01   3.5707E+02
     6    6.0000E+03   2.4008E-02   1.2849E-01  -1.3209E+02   3.5675E+02
     7    7.0000E+03   1.8663E-02   9.9882E-02   1.4610E+02   7.1642E+02
     8    8.0000E+03   1.4647E-02   7.8392E-02   6.4873E+01   7.1666E+02
     9    9.0000E+03   1.1429E-02   6.1169E-02  -1.5556E+01   7.1770E+02


     TOTAL HARMONIC DISTORTION =   6.7215E+01 PERCENT

**** 04/06/19 11:16:42 ******* PSpice Lite (March 2016) ******* ID# 10813 ****

 diody zad3


 ****     INITIAL TRANSIENT SOLUTION       TEMPERATURE =   27.000 DEG C

 ****     CURRENT STEP                     PARAM CAPACITY =   15.2000E-06


******************************************************************************



 NODE   VOLTAGE     NODE   VOLTAGE     NODE   VOLTAGE     NODE   VOLTAGE


(    1)    0.0000  (    2) 76.02E-24  




    VOLTAGE SOURCE CURRENTS
    NAME         CURRENT

    V1          -7.602E-26

    TOTAL POWER DISSIPATION   0.00E+00  WATTS


**** 04/06/19 11:16:42 ******* PSpice Lite (March 2016) ******* ID# 10813 ****

 diody zad3


 ****     FOURIER ANALYSIS                 TEMPERATURE =   27.000 DEG C

 ****     CURRENT STEP                     PARAM CAPACITY =   15.2000E-06


******************************************************************************



FOURIER COMPONENTS OF TRANSIENT RESPONSE V(R1)



 DC COMPONENT =   8.8951E+00

 HARMONIC   FREQUENCY     FOURIER     NORMALIZED     PHASE     NORMALIZED
    NO         (HZ)      COMPONENT     COMPONENT     (DEG)     PHASE (DEG)

     1    1.0000E+03   1.8490E-01   1.0000E+00  -8.1712E+01   0.0000E+00
     2    2.0000E+03   9.0458E-02   4.8923E-01  -1.6431E+02  -8.8851E-01
     3    3.0000E+03   5.8175E-02   3.1463E-01   1.1335E+02   3.5848E+02
     4    4.0000E+03   4.1482E-02   2.2435E-01   3.1183E+01   3.5803E+02
     5    5.0000E+03   3.1072E-02   1.6805E-01  -5.0808E+01   3.5775E+02
     6    6.0000E+03   2.3872E-02   1.2911E-01  -1.3262E+02   3.5765E+02
     7    7.0000E+03   1.8578E-02   1.0048E-01   1.4580E+02   7.1778E+02
     8    8.0000E+03   1.4530E-02   7.8586E-02   6.4555E+01   7.1825E+02
     9    9.0000E+03   1.1352E-02   6.1397E-02  -1.6266E+01   7.1914E+02


     TOTAL HARMONIC DISTORTION =   6.7351E+01 PERCENT

**** 04/06/19 11:16:42 ******* PSpice Lite (March 2016) ******* ID# 10813 ****

 diody zad3


 ****     INITIAL TRANSIENT SOLUTION       TEMPERATURE =   27.000 DEG C

 ****     CURRENT STEP                     PARAM CAPACITY =   15.4000E-06


******************************************************************************



 NODE   VOLTAGE     NODE   VOLTAGE     NODE   VOLTAGE     NODE   VOLTAGE


(    1)    0.0000  (    2) 76.02E-24  




    VOLTAGE SOURCE CURRENTS
    NAME         CURRENT

    V1          -7.602E-26

    TOTAL POWER DISSIPATION   0.00E+00  WATTS


**** 04/06/19 11:16:42 ******* PSpice Lite (March 2016) ******* ID# 10813 ****

 diody zad3


 ****     FOURIER ANALYSIS                 TEMPERATURE =   27.000 DEG C

 ****     CURRENT STEP                     PARAM CAPACITY =   15.4000E-06


******************************************************************************



FOURIER COMPONENTS OF TRANSIENT RESPONSE V(R1)



 DC COMPONENT =   8.8973E+00

 HARMONIC   FREQUENCY     FOURIER     NORMALIZED     PHASE     NORMALIZED
    NO         (HZ)      COMPONENT     COMPONENT     (DEG)     PHASE (DEG)

     1    1.0000E+03   1.8254E-01   1.0000E+00  -8.1811E+01   0.0000E+00
     2    2.0000E+03   8.9303E-02   4.8923E-01  -1.6451E+02  -8.8399E-01
     3    3.0000E+03   5.7443E-02   3.1470E-01   1.1306E+02   3.5849E+02
     4    4.0000E+03   4.0973E-02   2.2446E-01   3.0797E+01   3.5804E+02
     5    5.0000E+03   3.0698E-02   1.6818E-01  -5.1285E+01   3.5777E+02
     6    6.0000E+03   2.3590E-02   1.2924E-01  -1.3320E+02   3.5767E+02
     7    7.0000E+03   1.8367E-02   1.0062E-01   1.4512E+02   7.1780E+02
     8    8.0000E+03   1.4375E-02   7.8752E-02   6.3774E+01   7.1826E+02
     9    9.0000E+03   1.1238E-02   6.1568E-02  -1.7138E+01   7.1916E+02


     TOTAL HARMONIC DISTORTION =   6.7370E+01 PERCENT

**** 04/06/19 11:16:42 ******* PSpice Lite (March 2016) ******* ID# 10813 ****

 diody zad3


 ****     INITIAL TRANSIENT SOLUTION       TEMPERATURE =   27.000 DEG C

 ****     CURRENT STEP                     PARAM CAPACITY =   15.6000E-06


******************************************************************************



 NODE   VOLTAGE     NODE   VOLTAGE     NODE   VOLTAGE     NODE   VOLTAGE


(    1)    0.0000  (    2) 76.02E-24  




    VOLTAGE SOURCE CURRENTS
    NAME         CURRENT

    V1          -7.602E-26

    TOTAL POWER DISSIPATION   0.00E+00  WATTS


**** 04/06/19 11:16:42 ******* PSpice Lite (March 2016) ******* ID# 10813 ****

 diody zad3


 ****     FOURIER ANALYSIS                 TEMPERATURE =   27.000 DEG C

 ****     CURRENT STEP                     PARAM CAPACITY =   15.6000E-06


******************************************************************************



FOURIER COMPONENTS OF TRANSIENT RESPONSE V(R1)



 DC COMPONENT =   8.8981E+00

 HARMONIC   FREQUENCY     FOURIER     NORMALIZED     PHASE     NORMALIZED
    NO         (HZ)      COMPONENT     COMPONENT     (DEG)     PHASE (DEG)

     1    1.0000E+03   1.8020E-01   1.0000E+00  -8.1895E+01   0.0000E+00
     2    2.0000E+03   8.8214E-02   4.8953E-01  -1.6472E+02  -9.3186E-01
     3    3.0000E+03   5.6877E-02   3.1563E-01   1.1268E+02   3.5837E+02
     4    4.0000E+03   4.0708E-02   2.2590E-01   3.0311E+01   3.5789E+02
     5    5.0000E+03   3.0597E-02   1.6980E-01  -5.1878E+01   3.5760E+02
     6    6.0000E+03   2.3588E-02   1.3090E-01  -1.3397E+02   3.5740E+02
     7    7.0000E+03   1.8450E-02   1.0239E-01   1.4409E+02   7.1735E+02
     8    8.0000E+03   1.4526E-02   8.0610E-02   6.2502E+01   7.1766E+02
     9    9.0000E+03   1.1416E-02   6.3353E-02  -1.8618E+01   7.1844E+02


     TOTAL HARMONIC DISTORTION =   6.7621E+01 PERCENT

**** 04/06/19 11:16:42 ******* PSpice Lite (March 2016) ******* ID# 10813 ****

 diody zad3


 ****     INITIAL TRANSIENT SOLUTION       TEMPERATURE =   27.000 DEG C

 ****     CURRENT STEP                     PARAM CAPACITY =   15.8000E-06


******************************************************************************



 NODE   VOLTAGE     NODE   VOLTAGE     NODE   VOLTAGE     NODE   VOLTAGE


(    1)    0.0000  (    2) 76.02E-24  




    VOLTAGE SOURCE CURRENTS
    NAME         CURRENT

    V1          -7.602E-26

    TOTAL POWER DISSIPATION   0.00E+00  WATTS


**** 04/06/19 11:16:42 ******* PSpice Lite (March 2016) ******* ID# 10813 ****

 diody zad3


 ****     FOURIER ANALYSIS                 TEMPERATURE =   27.000 DEG C

 ****     CURRENT STEP                     PARAM CAPACITY =   15.8000E-06


******************************************************************************



FOURIER COMPONENTS OF TRANSIENT RESPONSE V(R1)



 DC COMPONENT =   8.9008E+00

 HARMONIC   FREQUENCY     FOURIER     NORMALIZED     PHASE     NORMALIZED
    NO         (HZ)      COMPONENT     COMPONENT     (DEG)     PHASE (DEG)

     1    1.0000E+03   1.7819E-01   1.0000E+00  -8.2046E+01   0.0000E+00
     2    2.0000E+03   8.7319E-02   4.9004E-01  -1.6484E+02  -7.4966E-01
     3    3.0000E+03   5.6164E-02   3.1519E-01   1.1264E+02   3.5878E+02
     4    4.0000E+03   4.0038E-02   2.2470E-01   3.0182E+01   3.5837E+02
     5    5.0000E+03   3.0048E-02   1.6863E-01  -5.2160E+01   3.5807E+02
     6    6.0000E+03   2.3164E-02   1.3000E-01  -1.3423E+02   3.5805E+02
     7    7.0000E+03   1.8059E-02   1.0135E-01   1.4402E+02   7.1834E+02
     8    8.0000E+03   1.4123E-02   7.9261E-02   6.2493E+01   7.1886E+02
     9    9.0000E+03   1.1051E-02   6.2019E-02  -1.8761E+01   7.1965E+02


     TOTAL HARMONIC DISTORTION =   6.7506E+01 PERCENT

**** 04/06/19 11:16:42 ******* PSpice Lite (March 2016) ******* ID# 10813 ****

 diody zad3


 ****     INITIAL TRANSIENT SOLUTION       TEMPERATURE =   27.000 DEG C

 ****     CURRENT STEP                     PARAM CAPACITY =   16.0000E-06


******************************************************************************



 NODE   VOLTAGE     NODE   VOLTAGE     NODE   VOLTAGE     NODE   VOLTAGE


(    1)    0.0000  (    2) 76.02E-24  




    VOLTAGE SOURCE CURRENTS
    NAME         CURRENT

    V1          -7.602E-26

    TOTAL POWER DISSIPATION   0.00E+00  WATTS


**** 04/06/19 11:16:42 ******* PSpice Lite (March 2016) ******* ID# 10813 ****

 diody zad3


 ****     FOURIER ANALYSIS                 TEMPERATURE =   27.000 DEG C

 ****     CURRENT STEP                     PARAM CAPACITY =   16.0000E-06


******************************************************************************



FOURIER COMPONENTS OF TRANSIENT RESPONSE V(R1)



 DC COMPONENT =   8.9019E+00

 HARMONIC   FREQUENCY     FOURIER     NORMALIZED     PHASE     NORMALIZED
    NO         (HZ)      COMPONENT     COMPONENT     (DEG)     PHASE (DEG)

     1    1.0000E+03   1.7587E-01   1.0000E+00  -8.2063E+01   0.0000E+00
     2    2.0000E+03   8.6147E-02   4.8984E-01  -1.6497E+02  -8.4070E-01
     3    3.0000E+03   5.5508E-02   3.1562E-01   1.1237E+02   3.5856E+02
     4    4.0000E+03   3.9684E-02   2.2564E-01   2.9867E+01   3.5812E+02
     5    5.0000E+03   2.9829E-02   1.6961E-01  -5.2490E+01   3.5782E+02
     6    6.0000E+03   2.3016E-02   1.3087E-01  -1.3468E+02   3.5769E+02
     7    7.0000E+03   1.8000E-02   1.0235E-01   1.4333E+02   7.1777E+02
     8    8.0000E+03   1.4154E-02   8.0483E-02   6.1647E+01   7.1815E+02
     9    9.0000E+03   1.1126E-02   6.3262E-02  -1.9664E+01   7.1890E+02


     TOTAL HARMONIC DISTORTION =   6.7625E+01 PERCENT

**** 04/06/19 11:16:42 ******* PSpice Lite (March 2016) ******* ID# 10813 ****

 diody zad3


 ****     INITIAL TRANSIENT SOLUTION       TEMPERATURE =   27.000 DEG C

 ****     CURRENT STEP                     PARAM CAPACITY =   16.2000E-06


******************************************************************************



 NODE   VOLTAGE     NODE   VOLTAGE     NODE   VOLTAGE     NODE   VOLTAGE


(    1)    0.0000  (    2) 76.02E-24  




    VOLTAGE SOURCE CURRENTS
    NAME         CURRENT

    V1          -7.602E-26

    TOTAL POWER DISSIPATION   0.00E+00  WATTS


**** 04/06/19 11:16:42 ******* PSpice Lite (March 2016) ******* ID# 10813 ****

 diody zad3


 ****     FOURIER ANALYSIS                 TEMPERATURE =   27.000 DEG C

 ****     CURRENT STEP                     PARAM CAPACITY =   16.2000E-06


******************************************************************************



FOURIER COMPONENTS OF TRANSIENT RESPONSE V(R1)



 DC COMPONENT =   8.9036E+00

 HARMONIC   FREQUENCY     FOURIER     NORMALIZED     PHASE     NORMALIZED
    NO         (HZ)      COMPONENT     COMPONENT     (DEG)     PHASE (DEG)

     1    1.0000E+03   1.7360E-01   1.0000E+00  -8.2168E+01   0.0000E+00
     2    2.0000E+03   8.4975E-02   4.8950E-01  -1.6527E+02  -9.3859E-01
     3    3.0000E+03   5.4831E-02   3.1585E-01   1.1183E+02   3.5833E+02
     4    4.0000E+03   3.9291E-02   2.2633E-01   2.9183E+01   3.5785E+02
     5    5.0000E+03   2.9555E-02   1.7025E-01  -5.3279E+01   3.5756E+02
     6    6.0000E+03   2.2799E-02   1.3133E-01  -1.3570E+02   3.5730E+02
     7    7.0000E+03   1.7861E-02   1.0289E-01   1.4197E+02   7.1714E+02
     8    8.0000E+03   1.4096E-02   8.1201E-02   6.0009E+01   7.1735E+02
     9    9.0000E+03   1.1100E-02   6.3943E-02  -2.1493E+01   7.1802E+02


     TOTAL HARMONIC DISTORTION =   6.7683E+01 PERCENT

**** 04/06/19 11:16:42 ******* PSpice Lite (March 2016) ******* ID# 10813 ****

 diody zad3


 ****     INITIAL TRANSIENT SOLUTION       TEMPERATURE =   27.000 DEG C

 ****     CURRENT STEP                     PARAM CAPACITY =   16.4000E-06


******************************************************************************



 NODE   VOLTAGE     NODE   VOLTAGE     NODE   VOLTAGE     NODE   VOLTAGE


(    1)    0.0000  (    2) 76.02E-24  




    VOLTAGE SOURCE CURRENTS
    NAME         CURRENT

    V1          -7.602E-26

    TOTAL POWER DISSIPATION   0.00E+00  WATTS


**** 04/06/19 11:16:42 ******* PSpice Lite (March 2016) ******* ID# 10813 ****

 diody zad3


 ****     FOURIER ANALYSIS                 TEMPERATURE =   27.000 DEG C

 ****     CURRENT STEP                     PARAM CAPACITY =   16.4000E-06


******************************************************************************



FOURIER COMPONENTS OF TRANSIENT RESPONSE V(R1)



 DC COMPONENT =   8.9067E+00

 HARMONIC   FREQUENCY     FOURIER     NORMALIZED     PHASE     NORMALIZED
    NO         (HZ)      COMPONENT     COMPONENT     (DEG)     PHASE (DEG)

     1    1.0000E+03   1.7175E-01   1.0000E+00  -8.2312E+01   0.0000E+00
     2    2.0000E+03   8.4146E-02   4.8992E-01  -1.6536E+02  -7.3505E-01
     3    3.0000E+03   5.4125E-02   3.1513E-01   1.1186E+02   3.5879E+02
     4    4.0000E+03   3.8591E-02   2.2468E-01   2.9144E+01   3.5839E+02
     5    5.0000E+03   2.8959E-02   1.6861E-01  -5.3449E+01   3.5811E+02
     6    6.0000E+03   2.2318E-02   1.2994E-01  -1.3579E+02   3.5809E+02
     7    7.0000E+03   1.7402E-02   1.0132E-01   1.4217E+02   7.1835E+02
     8    8.0000E+03   1.3619E-02   7.9293E-02   6.0348E+01   7.1885E+02
     9    9.0000E+03   1.0665E-02   6.2095E-02  -2.1191E+01   7.1962E+02


     TOTAL HARMONIC DISTORTION =   6.7493E+01 PERCENT

**** 04/06/19 11:16:42 ******* PSpice Lite (March 2016) ******* ID# 10813 ****

 diody zad3


 ****     INITIAL TRANSIENT SOLUTION       TEMPERATURE =   27.000 DEG C

 ****     CURRENT STEP                     PARAM CAPACITY =   16.6000E-06


******************************************************************************



 NODE   VOLTAGE     NODE   VOLTAGE     NODE   VOLTAGE     NODE   VOLTAGE


(    1)    0.0000  (    2) 76.02E-24  




    VOLTAGE SOURCE CURRENTS
    NAME         CURRENT

    V1          -7.602E-26

    TOTAL POWER DISSIPATION   0.00E+00  WATTS


**** 04/06/19 11:16:42 ******* PSpice Lite (March 2016) ******* ID# 10813 ****

 diody zad3


 ****     FOURIER ANALYSIS                 TEMPERATURE =   27.000 DEG C

 ****     CURRENT STEP                     PARAM CAPACITY =   16.6000E-06


******************************************************************************



FOURIER COMPONENTS OF TRANSIENT RESPONSE V(R1)



 DC COMPONENT =   8.9079E+00

 HARMONIC   FREQUENCY     FOURIER     NORMALIZED     PHASE     NORMALIZED
    NO         (HZ)      COMPONENT     COMPONENT     (DEG)     PHASE (DEG)

     1    1.0000E+03   1.6960E-01   1.0000E+00  -8.2305E+01   0.0000E+00
     2    2.0000E+03   8.3090E-02   4.8991E-01  -1.6546E+02  -8.4815E-01
     3    3.0000E+03   5.3601E-02   3.1604E-01   1.1162E+02   3.5853E+02
     4    4.0000E+03   3.8388E-02   2.2634E-01   2.8874E+01   3.5809E+02
     5    5.0000E+03   2.8896E-02   1.7038E-01  -5.3704E+01   3.5782E+02
     6    6.0000E+03   2.2327E-02   1.3164E-01  -1.3616E+02   3.5767E+02
     7    7.0000E+03   1.7501E-02   1.0319E-01   1.4155E+02   7.1768E+02
     8    8.0000E+03   1.3806E-02   8.1401E-02   5.9579E+01   7.1802E+02
     9    9.0000E+03   1.0881E-02   6.4159E-02  -2.1989E+01   7.1876E+02


     TOTAL HARMONIC DISTORTION =   6.7740E+01 PERCENT

**** 04/06/19 11:16:42 ******* PSpice Lite (March 2016) ******* ID# 10813 ****

 diody zad3


 ****     INITIAL TRANSIENT SOLUTION       TEMPERATURE =   27.000 DEG C

 ****     CURRENT STEP                     PARAM CAPACITY =   16.8000E-06


******************************************************************************



 NODE   VOLTAGE     NODE   VOLTAGE     NODE   VOLTAGE     NODE   VOLTAGE


(    1)    0.0000  (    2) 76.02E-24  




    VOLTAGE SOURCE CURRENTS
    NAME         CURRENT

    V1          -7.602E-26

    TOTAL POWER DISSIPATION   0.00E+00  WATTS


**** 04/06/19 11:16:42 ******* PSpice Lite (March 2016) ******* ID# 10813 ****

 diody zad3


 ****     FOURIER ANALYSIS                 TEMPERATURE =   27.000 DEG C

 ****     CURRENT STEP                     PARAM CAPACITY =   16.8000E-06


******************************************************************************



FOURIER COMPONENTS OF TRANSIENT RESPONSE V(R1)



 DC COMPONENT =   8.9093E+00

 HARMONIC   FREQUENCY     FOURIER     NORMALIZED     PHASE     NORMALIZED
    NO         (HZ)      COMPONENT     COMPONENT     (DEG)     PHASE (DEG)

     1    1.0000E+03   1.6784E-01   1.0000E+00  -8.2465E+01   0.0000E+00
     2    2.0000E+03   8.2343E-02   4.9061E-01  -1.6560E+02  -6.6680E-01
     3    3.0000E+03   5.3023E-02   3.1592E-01   1.1154E+02   3.5893E+02
     4    4.0000E+03   3.7857E-02   2.2555E-01   2.8677E+01   3.5854E+02
     5    5.0000E+03   2.8490E-02   1.6974E-01  -5.4099E+01   3.5823E+02
     6    6.0000E+03   2.2044E-02   1.3134E-01  -1.3658E+02   3.5821E+02
     7    7.0000E+03   1.7251E-02   1.0278E-01   1.4124E+02   7.1850E+02
     8    8.0000E+03   1.3546E-02   8.0707E-02   5.9213E+01   7.1893E+02
     9    9.0000E+03   1.0658E-02   6.3503E-02  -2.2624E+01   7.1956E+02


     TOTAL HARMONIC DISTORTION =   6.7716E+01 PERCENT

**** 04/06/19 11:16:42 ******* PSpice Lite (March 2016) ******* ID# 10813 ****

 diody zad3


 ****     INITIAL TRANSIENT SOLUTION       TEMPERATURE =   27.000 DEG C

 ****     CURRENT STEP                     PARAM CAPACITY =   17.0000E-06


******************************************************************************



 NODE   VOLTAGE     NODE   VOLTAGE     NODE   VOLTAGE     NODE   VOLTAGE


(    1)    0.0000  (    2) 76.02E-24  




    VOLTAGE SOURCE CURRENTS
    NAME         CURRENT

    V1          -7.602E-26

    TOTAL POWER DISSIPATION   0.00E+00  WATTS


**** 04/06/19 11:16:42 ******* PSpice Lite (March 2016) ******* ID# 10813 ****

 diody zad3


 ****     FOURIER ANALYSIS                 TEMPERATURE =   27.000 DEG C

 ****     CURRENT STEP                     PARAM CAPACITY =   17.0000E-06


******************************************************************************



FOURIER COMPONENTS OF TRANSIENT RESPONSE V(R1)



 DC COMPONENT =   8.9110E+00

 HARMONIC   FREQUENCY     FOURIER     NORMALIZED     PHASE     NORMALIZED
    NO         (HZ)      COMPONENT     COMPONENT     (DEG)     PHASE (DEG)

     1    1.0000E+03   1.6574E-01   1.0000E+00  -8.2472E+01   0.0000E+00
     2    2.0000E+03   8.1247E-02   4.9021E-01  -1.6574E+02  -7.9127E-01
     3    3.0000E+03   5.2415E-02   3.1626E-01   1.1123E+02   3.5865E+02
     4    4.0000E+03   3.7538E-02   2.2649E-01   2.8331E+01   3.5822E+02
     5    5.0000E+03   2.8282E-02   1.7064E-01  -5.4431E+01   3.5793E+02
     6    6.0000E+03   2.1886E-02   1.3205E-01  -1.3705E+02   3.5779E+02
     7    7.0000E+03   1.7175E-02   1.0363E-01   1.4053E+02   7.1784E+02
     8    8.0000E+03   1.3560E-02   8.1818E-02   5.8370E+01   7.1815E+02
     9    9.0000E+03   1.0709E-02   6.4612E-02  -2.3457E+01   7.1879E+02


     TOTAL HARMONIC DISTORTION =   6.7808E+01 PERCENT

**** 04/06/19 11:16:42 ******* PSpice Lite (March 2016) ******* ID# 10813 ****

 diody zad3


 ****     INITIAL TRANSIENT SOLUTION       TEMPERATURE =   27.000 DEG C

 ****     CURRENT STEP                     PARAM CAPACITY =   17.2000E-06


******************************************************************************



 NODE   VOLTAGE     NODE   VOLTAGE     NODE   VOLTAGE     NODE   VOLTAGE


(    1)    0.0000  (    2) 76.02E-24  




    VOLTAGE SOURCE CURRENTS
    NAME         CURRENT

    V1          -7.602E-26

    TOTAL POWER DISSIPATION   0.00E+00  WATTS


**** 04/06/19 11:16:42 ******* PSpice Lite (March 2016) ******* ID# 10813 ****

 diody zad3


 ****     FOURIER ANALYSIS                 TEMPERATURE =   27.000 DEG C

 ****     CURRENT STEP                     PARAM CAPACITY =   17.2000E-06


******************************************************************************



FOURIER COMPONENTS OF TRANSIENT RESPONSE V(R1)



 DC COMPONENT =   8.9128E+00

 HARMONIC   FREQUENCY     FOURIER     NORMALIZED     PHASE     NORMALIZED
    NO         (HZ)      COMPONENT     COMPONENT     (DEG)     PHASE (DEG)

     1    1.0000E+03   1.6377E-01   1.0000E+00  -8.2521E+01   0.0000E+00
     2    2.0000E+03   8.0249E-02   4.9000E-01  -1.6588E+02  -8.3530E-01
     3    3.0000E+03   5.1801E-02   3.1630E-01   1.1098E+02   3.5854E+02
     4    4.0000E+03   3.7134E-02   2.2674E-01   2.8028E+01   3.5811E+02
     5    5.0000E+03   2.7979E-02   1.7084E-01  -5.4766E+01   3.5784E+02
     6    6.0000E+03   2.1641E-02   1.3214E-01  -1.3747E+02   3.5766E+02
     7    7.0000E+03   1.6992E-02   1.0376E-01   1.3997E+02   7.1762E+02
     8    8.0000E+03   1.3434E-02   8.2029E-02   5.7724E+01   7.1789E+02
     9    9.0000E+03   1.0613E-02   6.4801E-02  -2.4138E+01   7.1855E+02


     TOTAL HARMONIC DISTORTION =   6.7816E+01 PERCENT

**** 04/06/19 11:16:42 ******* PSpice Lite (March 2016) ******* ID# 10813 ****

 diody zad3


 ****     INITIAL TRANSIENT SOLUTION       TEMPERATURE =   27.000 DEG C

 ****     CURRENT STEP                     PARAM CAPACITY =   17.4000E-06


******************************************************************************



 NODE   VOLTAGE     NODE   VOLTAGE     NODE   VOLTAGE     NODE   VOLTAGE


(    1)    0.0000  (    2) 76.02E-24  




    VOLTAGE SOURCE CURRENTS
    NAME         CURRENT

    V1          -7.602E-26

    TOTAL POWER DISSIPATION   0.00E+00  WATTS


**** 04/06/19 11:16:42 ******* PSpice Lite (March 2016) ******* ID# 10813 ****

 diody zad3


 ****     FOURIER ANALYSIS                 TEMPERATURE =   27.000 DEG C

 ****     CURRENT STEP                     PARAM CAPACITY =   17.4000E-06


******************************************************************************



FOURIER COMPONENTS OF TRANSIENT RESPONSE V(R1)



 DC COMPONENT =   8.9150E+00

 HARMONIC   FREQUENCY     FOURIER     NORMALIZED     PHASE     NORMALIZED
    NO         (HZ)      COMPONENT     COMPONENT     (DEG)     PHASE (DEG)

     1    1.0000E+03   1.6229E-01   1.0000E+00  -8.2820E+01   0.0000E+00
     2    2.0000E+03   7.9673E-02   4.9094E-01  -1.6617E+02  -5.2567E-01
     3    3.0000E+03   5.1222E-02   3.1563E-01   1.1077E+02   3.5923E+02
     4    4.0000E+03   3.6481E-02   2.2480E-01   2.7615E+01   3.5890E+02
     5    5.0000E+03   2.7434E-02   1.6905E-01  -5.5499E+01   3.5860E+02
     6    6.0000E+03   2.1230E-02   1.3082E-01  -1.3819E+02   3.5873E+02
     7    7.0000E+03   1.6580E-02   1.0217E-01   1.3952E+02   7.1926E+02
     8    8.0000E+03   1.2967E-02   7.9903E-02   5.7275E+01   7.1984E+02
     9    9.0000E+03   1.0183E-02   6.2747E-02  -2.4889E+01   7.2049E+02


     TOTAL HARMONIC DISTORTION =   6.7648E+01 PERCENT

**** 04/06/19 11:16:42 ******* PSpice Lite (March 2016) ******* ID# 10813 ****

 diody zad3


 ****     INITIAL TRANSIENT SOLUTION       TEMPERATURE =   27.000 DEG C

 ****     CURRENT STEP                     PARAM CAPACITY =   17.6000E-06


******************************************************************************



 NODE   VOLTAGE     NODE   VOLTAGE     NODE   VOLTAGE     NODE   VOLTAGE


(    1)    0.0000  (    2) 76.02E-24  




    VOLTAGE SOURCE CURRENTS
    NAME         CURRENT

    V1          -7.602E-26

    TOTAL POWER DISSIPATION   0.00E+00  WATTS


**** 04/06/19 11:16:42 ******* PSpice Lite (March 2016) ******* ID# 10813 ****

 diody zad3


 ****     FOURIER ANALYSIS                 TEMPERATURE =   27.000 DEG C

 ****     CURRENT STEP                     PARAM CAPACITY =   17.6000E-06


******************************************************************************



FOURIER COMPONENTS OF TRANSIENT RESPONSE V(R1)



 DC COMPONENT =   8.9158E+00

 HARMONIC   FREQUENCY     FOURIER     NORMALIZED     PHASE     NORMALIZED
    NO         (HZ)      COMPONENT     COMPONENT     (DEG)     PHASE (DEG)

     1    1.0000E+03   1.6029E-01   1.0000E+00  -8.2776E+01   0.0000E+00
     2    2.0000E+03   7.8611E-02   4.9044E-01  -1.6621E+02  -6.5953E-01
     3    3.0000E+03   5.0625E-02   3.1584E-01   1.1060E+02   3.5893E+02
     4    4.0000E+03   3.6154E-02   2.2556E-01   2.7442E+01   3.5854E+02
     5    5.0000E+03   2.7200E-02   1.6970E-01  -5.5624E+01   3.5825E+02
     6    6.0000E+03   2.1030E-02   1.3120E-01  -1.3843E+02   3.5822E+02
     7    7.0000E+03   1.6450E-02   1.0263E-01   1.3902E+02   7.1845E+02
     8    8.0000E+03   1.2914E-02   8.0565E-02   5.6643E+01   7.1885E+02
     9    9.0000E+03   1.0151E-02   6.3329E-02  -2.5531E+01   7.1945E+02


     TOTAL HARMONIC DISTORTION =   6.7691E+01 PERCENT

**** 04/06/19 11:16:42 ******* PSpice Lite (March 2016) ******* ID# 10813 ****

 diody zad3


 ****     INITIAL TRANSIENT SOLUTION       TEMPERATURE =   27.000 DEG C

 ****     CURRENT STEP                     PARAM CAPACITY =   17.8000E-06


******************************************************************************



 NODE   VOLTAGE     NODE   VOLTAGE     NODE   VOLTAGE     NODE   VOLTAGE


(    1)    0.0000  (    2) 76.02E-24  




    VOLTAGE SOURCE CURRENTS
    NAME         CURRENT

    V1          -7.602E-26

    TOTAL POWER DISSIPATION   0.00E+00  WATTS


**** 04/06/19 11:16:42 ******* PSpice Lite (March 2016) ******* ID# 10813 ****

 diody zad3


 ****     FOURIER ANALYSIS                 TEMPERATURE =   27.000 DEG C

 ****     CURRENT STEP                     PARAM CAPACITY =   17.8000E-06


******************************************************************************



FOURIER COMPONENTS OF TRANSIENT RESPONSE V(R1)



 DC COMPONENT =   8.9173E+00

 HARMONIC   FREQUENCY     FOURIER     NORMALIZED     PHASE     NORMALIZED
    NO         (HZ)      COMPONENT     COMPONENT     (DEG)     PHASE (DEG)

     1    1.0000E+03   1.5849E-01   1.0000E+00  -8.2845E+01   0.0000E+00
     2    2.0000E+03   7.7711E-02   4.9034E-01  -1.6636E+02  -6.6865E-01
     3    3.0000E+03   5.0050E-02   3.1580E-01   1.1037E+02   3.5890E+02
     4    4.0000E+03   3.5750E-02   2.2557E-01   2.7140E+01   3.5852E+02
     5    5.0000E+03   2.6891E-02   1.6968E-01  -5.5987E+01   3.5824E+02
     6    6.0000E+03   2.0783E-02   1.3114E-01  -1.3888E+02   3.5819E+02
     7    7.0000E+03   1.6255E-02   1.0256E-01   1.3848E+02   7.1840E+02
     8    8.0000E+03   1.2763E-02   8.0532E-02   5.6021E+01   7.1878E+02
     9    9.0000E+03   1.0031E-02   6.3294E-02  -2.6214E+01   7.1939E+02


     TOTAL HARMONIC DISTORTION =   6.7679E+01 PERCENT

**** 04/06/19 11:16:42 ******* PSpice Lite (March 2016) ******* ID# 10813 ****

 diody zad3


 ****     INITIAL TRANSIENT SOLUTION       TEMPERATURE =   27.000 DEG C

 ****     CURRENT STEP                     PARAM CAPACITY =   18.0000E-06


******************************************************************************



 NODE   VOLTAGE     NODE   VOLTAGE     NODE   VOLTAGE     NODE   VOLTAGE


(    1)    0.0000  (    2) 76.02E-24  




    VOLTAGE SOURCE CURRENTS
    NAME         CURRENT

    V1          -7.602E-26

    TOTAL POWER DISSIPATION   0.00E+00  WATTS


**** 04/06/19 11:16:42 ******* PSpice Lite (March 2016) ******* ID# 10813 ****

 diody zad3


 ****     FOURIER ANALYSIS                 TEMPERATURE =   27.000 DEG C

 ****     CURRENT STEP                     PARAM CAPACITY =   18.0000E-06


******************************************************************************



FOURIER COMPONENTS OF TRANSIENT RESPONSE V(R1)



 DC COMPONENT =   8.9183E+00

 HARMONIC   FREQUENCY     FOURIER     NORMALIZED     PHASE     NORMALIZED
    NO         (HZ)      COMPONENT     COMPONENT     (DEG)     PHASE (DEG)

     1    1.0000E+03   1.5652E-01   1.0000E+00  -8.2861E+01   0.0000E+00
     2    2.0000E+03   7.6597E-02   4.8939E-01  -1.6654E+02  -8.1458E-01
     3    3.0000E+03   4.9360E-02   3.1537E-01   1.0999E+02   3.5858E+02
     4    4.0000E+03   3.5299E-02   2.2553E-01   2.6730E+01   3.5818E+02
     5    5.0000E+03   2.6504E-02   1.6934E-01  -5.6364E+01   3.5794E+02
     6    6.0000E+03   2.0410E-02   1.3040E-01  -1.3938E+02   3.5779E+02
     7    7.0000E+03   1.5946E-02   1.0188E-01   1.3775E+02   7.1778E+02
     8    8.0000E+03   1.2536E-02   8.0093E-02   5.5232E+01   7.1812E+02
     9    9.0000E+03   9.8346E-03   6.2835E-02  -2.6863E+01   7.1889E+02


     TOTAL HARMONIC DISTORTION =   6.7546E+01 PERCENT

**** 04/06/19 11:16:42 ******* PSpice Lite (March 2016) ******* ID# 10813 ****

 diody zad3


 ****     INITIAL TRANSIENT SOLUTION       TEMPERATURE =   27.000 DEG C

 ****     CURRENT STEP                     PARAM CAPACITY =   18.2000E-06


******************************************************************************



 NODE   VOLTAGE     NODE   VOLTAGE     NODE   VOLTAGE     NODE   VOLTAGE


(    1)    0.0000  (    2) 76.02E-24  




    VOLTAGE SOURCE CURRENTS
    NAME         CURRENT

    V1          -7.602E-26

    TOTAL POWER DISSIPATION   0.00E+00  WATTS


**** 04/06/19 11:16:42 ******* PSpice Lite (March 2016) ******* ID# 10813 ****

 diody zad3


 ****     FOURIER ANALYSIS                 TEMPERATURE =   27.000 DEG C

 ****     CURRENT STEP                     PARAM CAPACITY =   18.2000E-06


******************************************************************************



FOURIER COMPONENTS OF TRANSIENT RESPONSE V(R1)



 DC COMPONENT =   8.9202E+00

 HARMONIC   FREQUENCY     FOURIER     NORMALIZED     PHASE     NORMALIZED
    NO         (HZ)      COMPONENT     COMPONENT     (DEG)     PHASE (DEG)

     1    1.0000E+03   1.5483E-01   1.0000E+00  -8.2914E+01   0.0000E+00
     2    2.0000E+03   7.5781E-02   4.8946E-01  -1.6665E+02  -8.2146E-01
     3    3.0000E+03   4.8864E-02   3.1561E-01   1.0982E+02   3.5856E+02
     4    4.0000E+03   3.4975E-02   2.2590E-01   2.6499E+01   3.5815E+02
     5    5.0000E+03   2.6284E-02   1.6976E-01  -5.6647E+01   3.5792E+02
     6    6.0000E+03   2.0260E-02   1.3086E-01  -1.3973E+02   3.5775E+02
     7    7.0000E+03   1.5852E-02   1.0239E-01   1.3730E+02   7.1770E+02
     8    8.0000E+03   1.2486E-02   8.0649E-02   5.4692E+01   7.1800E+02
     9    9.0000E+03   9.8148E-03   6.3393E-02  -2.7499E+01   7.1873E+02


     TOTAL HARMONIC DISTORTION =   6.7614E+01 PERCENT

**** 04/06/19 11:16:42 ******* PSpice Lite (March 2016) ******* ID# 10813 ****

 diody zad3


 ****     INITIAL TRANSIENT SOLUTION       TEMPERATURE =   27.000 DEG C

 ****     CURRENT STEP                     PARAM CAPACITY =   18.4000E-06


******************************************************************************



 NODE   VOLTAGE     NODE   VOLTAGE     NODE   VOLTAGE     NODE   VOLTAGE


(    1)    0.0000  (    2) 76.02E-24  




    VOLTAGE SOURCE CURRENTS
    NAME         CURRENT

    V1          -7.602E-26

    TOTAL POWER DISSIPATION   0.00E+00  WATTS


**** 04/06/19 11:16:42 ******* PSpice Lite (March 2016) ******* ID# 10813 ****

 diody zad3


 ****     FOURIER ANALYSIS                 TEMPERATURE =   27.000 DEG C

 ****     CURRENT STEP                     PARAM CAPACITY =   18.4000E-06


******************************************************************************



FOURIER COMPONENTS OF TRANSIENT RESPONSE V(R1)



 DC COMPONENT =   8.9213E+00

 HARMONIC   FREQUENCY     FOURIER     NORMALIZED     PHASE     NORMALIZED
    NO         (HZ)      COMPONENT     COMPONENT     (DEG)     PHASE (DEG)

     1    1.0000E+03   1.5343E-01   1.0000E+00  -8.3036E+01   0.0000E+00
     2    2.0000E+03   7.5288E-02   4.9070E-01  -1.6671E+02  -6.3807E-01
     3    3.0000E+03   4.8540E-02   3.1636E-01   1.0985E+02   3.5895E+02
     4    4.0000E+03   3.4722E-02   2.2630E-01   2.6433E+01   3.5858E+02
     5    5.0000E+03   2.6172E-02   1.7058E-01  -5.6895E+01   3.5828E+02
     6    6.0000E+03   2.0280E-02   1.3218E-01  -1.3999E+02   3.5822E+02
     7    7.0000E+03   1.5908E-02   1.0368E-01   1.3715E+02   7.1840E+02
     8    8.0000E+03   1.2533E-02   8.1688E-02   5.4430E+01   7.1872E+02
     9    9.0000E+03   9.8910E-03   6.4465E-02  -2.8096E+01   7.1923E+02


     TOTAL HARMONIC DISTORTION =   6.7840E+01 PERCENT

**** 04/06/19 11:16:42 ******* PSpice Lite (March 2016) ******* ID# 10813 ****

 diody zad3


 ****     INITIAL TRANSIENT SOLUTION       TEMPERATURE =   27.000 DEG C

 ****     CURRENT STEP                     PARAM CAPACITY =   18.6000E-06


******************************************************************************



 NODE   VOLTAGE     NODE   VOLTAGE     NODE   VOLTAGE     NODE   VOLTAGE


(    1)    0.0000  (    2) 76.02E-24  




    VOLTAGE SOURCE CURRENTS
    NAME         CURRENT

    V1          -7.602E-26

    TOTAL POWER DISSIPATION   0.00E+00  WATTS


**** 04/06/19 11:16:42 ******* PSpice Lite (March 2016) ******* ID# 10813 ****

 diody zad3


 ****     FOURIER ANALYSIS                 TEMPERATURE =   27.000 DEG C

 ****     CURRENT STEP                     PARAM CAPACITY =   18.6000E-06


******************************************************************************



FOURIER COMPONENTS OF TRANSIENT RESPONSE V(R1)



 DC COMPONENT =   8.9227E+00

 HARMONIC   FREQUENCY     FOURIER     NORMALIZED     PHASE     NORMALIZED
    NO         (HZ)      COMPONENT     COMPONENT     (DEG)     PHASE (DEG)

     1    1.0000E+03   1.5170E-01   1.0000E+00  -8.3121E+01   0.0000E+00
     2    2.0000E+03   7.4348E-02   4.9009E-01  -1.6692E+02  -6.8168E-01
     3    3.0000E+03   4.7898E-02   3.1574E-01   1.0950E+02   3.5886E+02
     4    4.0000E+03   3.4231E-02   2.2565E-01   2.6005E+01   3.5849E+02
     5    5.0000E+03   2.5742E-02   1.6969E-01  -5.7369E+01   3.5823E+02
     6    6.0000E+03   1.9880E-02   1.3105E-01  -1.4056E+02   3.5817E+02
     7    7.0000E+03   1.5550E-02   1.0250E-01   1.3647E+02   7.1832E+02
     8    8.0000E+03   1.2220E-02   8.0554E-02   5.3713E+01   7.1868E+02
     9    9.0000E+03   9.6053E-03   6.3317E-02  -2.8765E+01   7.1932E+02


     TOTAL HARMONIC DISTORTION =   6.7659E+01 PERCENT

**** 04/06/19 11:16:42 ******* PSpice Lite (March 2016) ******* ID# 10813 ****

 diody zad3


 ****     INITIAL TRANSIENT SOLUTION       TEMPERATURE =   27.000 DEG C

 ****     CURRENT STEP                     PARAM CAPACITY =   18.8000E-06


******************************************************************************



 NODE   VOLTAGE     NODE   VOLTAGE     NODE   VOLTAGE     NODE   VOLTAGE


(    1)    0.0000  (    2) 76.02E-24  




    VOLTAGE SOURCE CURRENTS
    NAME         CURRENT

    V1          -7.602E-26

    TOTAL POWER DISSIPATION   0.00E+00  WATTS


**** 04/06/19 11:16:42 ******* PSpice Lite (March 2016) ******* ID# 10813 ****

 diody zad3


 ****     FOURIER ANALYSIS                 TEMPERATURE =   27.000 DEG C

 ****     CURRENT STEP                     PARAM CAPACITY =   18.8000E-06


******************************************************************************



FOURIER COMPONENTS OF TRANSIENT RESPONSE V(R1)



 DC COMPONENT =   8.9245E+00

 HARMONIC   FREQUENCY     FOURIER     NORMALIZED     PHASE     NORMALIZED
    NO         (HZ)      COMPONENT     COMPONENT     (DEG)     PHASE (DEG)

     1    1.0000E+03   1.5046E-01   1.0000E+00  -8.3331E+01   0.0000E+00
     2    2.0000E+03   7.3975E-02   4.9165E-01  -1.6710E+02  -4.3930E-01
     3    3.0000E+03   4.7635E-02   3.1659E-01   1.0939E+02   3.5938E+02
     4    4.0000E+03   3.4004E-02   2.2600E-01   2.5731E+01   3.5906E+02
     5    5.0000E+03   2.5664E-02   1.7057E-01  -5.7913E+01   3.5874E+02
     6    6.0000E+03   1.9947E-02   1.3257E-01  -1.4113E+02   3.5886E+02
     7    7.0000E+03   1.5644E-02   1.0398E-01   1.3603E+02   7.1934E+02
     8    8.0000E+03   1.2292E-02   8.1693E-02   5.3146E+01   7.1979E+02
     9    9.0000E+03   9.7098E-03   6.4533E-02  -2.9722E+01   7.2026E+02


     TOTAL HARMONIC DISTORTION =   6.7922E+01 PERCENT

**** 04/06/19 11:16:42 ******* PSpice Lite (March 2016) ******* ID# 10813 ****

 diody zad3


 ****     INITIAL TRANSIENT SOLUTION       TEMPERATURE =   27.000 DEG C

 ****     CURRENT STEP                     PARAM CAPACITY =   19.0000E-06


******************************************************************************



 NODE   VOLTAGE     NODE   VOLTAGE     NODE   VOLTAGE     NODE   VOLTAGE


(    1)    0.0000  (    2) 76.02E-24  




    VOLTAGE SOURCE CURRENTS
    NAME         CURRENT

    V1          -7.602E-26

    TOTAL POWER DISSIPATION   0.00E+00  WATTS


**** 04/06/19 11:16:42 ******* PSpice Lite (March 2016) ******* ID# 10813 ****

 diody zad3


 ****     FOURIER ANALYSIS                 TEMPERATURE =   27.000 DEG C

 ****     CURRENT STEP                     PARAM CAPACITY =   19.0000E-06


******************************************************************************



FOURIER COMPONENTS OF TRANSIENT RESPONSE V(R1)



 DC COMPONENT =   8.9248E+00

 HARMONIC   FREQUENCY     FOURIER     NORMALIZED     PHASE     NORMALIZED
    NO         (HZ)      COMPONENT     COMPONENT     (DEG)     PHASE (DEG)

     1    1.0000E+03   1.4857E-01   1.0000E+00  -8.3227E+01   0.0000E+00
     2    2.0000E+03   7.2858E-02   4.9040E-01  -1.6713E+02  -6.7152E-01
     3    3.0000E+03   4.6991E-02   3.1629E-01   1.0919E+02   3.5887E+02
     4    4.0000E+03   3.3639E-02   2.2642E-01   2.5595E+01   3.5850E+02
     5    5.0000E+03   2.5349E-02   1.7062E-01  -5.7888E+01   3.5825E+02
     6    6.0000E+03   1.9627E-02   1.3211E-01  -1.4120E+02   3.5817E+02
     7    7.0000E+03   1.5401E-02   1.0366E-01   1.3570E+02   7.1829E+02
     8    8.0000E+03   1.2151E-02   8.1787E-02   5.2801E+01   7.1862E+02
     9    9.0000E+03   9.5951E-03   6.4583E-02  -2.9832E+01   7.1922E+02


     TOTAL HARMONIC DISTORTION =   6.7820E+01 PERCENT

**** 04/06/19 11:16:42 ******* PSpice Lite (March 2016) ******* ID# 10813 ****

 diody zad3


 ****     INITIAL TRANSIENT SOLUTION       TEMPERATURE =   27.000 DEG C

 ****     CURRENT STEP                     PARAM CAPACITY =   19.2000E-06


******************************************************************************



 NODE   VOLTAGE     NODE   VOLTAGE     NODE   VOLTAGE     NODE   VOLTAGE


(    1)    0.0000  (    2) 76.02E-24  




    VOLTAGE SOURCE CURRENTS
    NAME         CURRENT

    V1          -7.602E-26

    TOTAL POWER DISSIPATION   0.00E+00  WATTS


**** 04/06/19 11:16:42 ******* PSpice Lite (March 2016) ******* ID# 10813 ****

 diody zad3


 ****     FOURIER ANALYSIS                 TEMPERATURE =   27.000 DEG C

 ****     CURRENT STEP                     PARAM CAPACITY =   19.2000E-06


******************************************************************************



FOURIER COMPONENTS OF TRANSIENT RESPONSE V(R1)



 DC COMPONENT =   8.9263E+00

 HARMONIC   FREQUENCY     FOURIER     NORMALIZED     PHASE     NORMALIZED
    NO         (HZ)      COMPONENT     COMPONENT     (DEG)     PHASE (DEG)

     1    1.0000E+03   1.4706E-01   1.0000E+00  -8.3341E+01   0.0000E+00
     2    2.0000E+03   7.2099E-02   4.9027E-01  -1.6731E+02  -6.2947E-01
     3    3.0000E+03   4.6443E-02   3.1581E-01   1.0894E+02   3.5896E+02
     4    4.0000E+03   3.3184E-02   2.2565E-01   2.5245E+01   3.5861E+02
     5    5.0000E+03   2.4963E-02   1.6975E-01  -5.8345E+01   3.5836E+02
     6    6.0000E+03   1.9292E-02   1.3118E-01  -1.4172E+02   3.5833E+02
     7    7.0000E+03   1.5092E-02   1.0262E-01   1.3514E+02   7.1852E+02
     8    8.0000E+03   1.1858E-02   8.0630E-02   5.2172E+01   7.1890E+02
     9    9.0000E+03   9.3246E-03   6.3406E-02  -3.0549E+01   7.1952E+02


     TOTAL HARMONIC DISTORTION =   6.7682E+01 PERCENT

**** 04/06/19 11:16:42 ******* PSpice Lite (March 2016) ******* ID# 10813 ****

 diody zad3


 ****     INITIAL TRANSIENT SOLUTION       TEMPERATURE =   27.000 DEG C

 ****     CURRENT STEP                     PARAM CAPACITY =   19.4000E-06


******************************************************************************



 NODE   VOLTAGE     NODE   VOLTAGE     NODE   VOLTAGE     NODE   VOLTAGE


(    1)    0.0000  (    2) 76.02E-24  




    VOLTAGE SOURCE CURRENTS
    NAME         CURRENT

    V1          -7.602E-26

    TOTAL POWER DISSIPATION   0.00E+00  WATTS


**** 04/06/19 11:16:42 ******* PSpice Lite (March 2016) ******* ID# 10813 ****

 diody zad3


 ****     FOURIER ANALYSIS                 TEMPERATURE =   27.000 DEG C

 ****     CURRENT STEP                     PARAM CAPACITY =   19.4000E-06


******************************************************************************



FOURIER COMPONENTS OF TRANSIENT RESPONSE V(R1)



 DC COMPONENT =   8.9274E+00

 HARMONIC   FREQUENCY     FOURIER     NORMALIZED     PHASE     NORMALIZED
    NO         (HZ)      COMPONENT     COMPONENT     (DEG)     PHASE (DEG)

     1    1.0000E+03   1.4554E-01   1.0000E+00  -8.3327E+01   0.0000E+00
     2    2.0000E+03   7.1385E-02   4.9047E-01  -1.6733E+02  -6.7618E-01
     3    3.0000E+03   4.6072E-02   3.1655E-01   1.0887E+02   3.5885E+02
     4    4.0000E+03   3.3013E-02   2.2682E-01   2.5168E+01   3.5847E+02
     5    5.0000E+03   2.4899E-02   1.7107E-01  -5.8426E+01   3.5821E+02
     6    6.0000E+03   1.9295E-02   1.3257E-01  -1.4188E+02   3.5808E+02
     7    7.0000E+03   1.5161E-02   1.0417E-01   1.3484E+02   7.1812E+02
     8    8.0000E+03   1.1982E-02   8.2328E-02   5.1754E+01   7.1837E+02
     9    9.0000E+03   9.4752E-03   6.5102E-02  -3.1076E+01   7.1886E+02


     TOTAL HARMONIC DISTORTION =   6.7892E+01 PERCENT

**** 04/06/19 11:16:42 ******* PSpice Lite (March 2016) ******* ID# 10813 ****

 diody zad3


 ****     INITIAL TRANSIENT SOLUTION       TEMPERATURE =   27.000 DEG C

 ****     CURRENT STEP                     PARAM CAPACITY =   19.6000E-06


******************************************************************************



 NODE   VOLTAGE     NODE   VOLTAGE     NODE   VOLTAGE     NODE   VOLTAGE


(    1)    0.0000  (    2) 76.02E-24  




    VOLTAGE SOURCE CURRENTS
    NAME         CURRENT

    V1          -7.602E-26

    TOTAL POWER DISSIPATION   0.00E+00  WATTS


**** 04/06/19 11:16:42 ******* PSpice Lite (March 2016) ******* ID# 10813 ****

 diody zad3


 ****     FOURIER ANALYSIS                 TEMPERATURE =   27.000 DEG C

 ****     CURRENT STEP                     PARAM CAPACITY =   19.6000E-06


******************************************************************************



FOURIER COMPONENTS OF TRANSIENT RESPONSE V(R1)



 DC COMPONENT =   8.9284E+00

 HARMONIC   FREQUENCY     FOURIER     NORMALIZED     PHASE     NORMALIZED
    NO         (HZ)      COMPONENT     COMPONENT     (DEG)     PHASE (DEG)

     1    1.0000E+03   1.4407E-01   1.0000E+00  -8.3416E+01   0.0000E+00
     2    2.0000E+03   7.0656E-02   4.9042E-01  -1.6749E+02  -6.6191E-01
     3    3.0000E+03   4.5586E-02   3.1641E-01   1.0863E+02   3.5888E+02
     4    4.0000E+03   3.2648E-02   2.2660E-01   2.4853E+01   3.5852E+02
     5    5.0000E+03   2.4610E-02   1.7081E-01  -5.8817E+01   3.5826E+02
     6    6.0000E+03   1.9059E-02   1.3229E-01  -1.4233E+02   3.5816E+02
     7    7.0000E+03   1.4961E-02   1.0384E-01   1.3433E+02   7.1825E+02
     8    8.0000E+03   1.1809E-02   8.1964E-02   5.1201E+01   7.1853E+02
     9    9.0000E+03   9.3247E-03   6.4721E-02  -3.1671E+01   7.1908E+02


     TOTAL HARMONIC DISTORTION =   6.7848E+01 PERCENT

**** 04/06/19 11:16:42 ******* PSpice Lite (March 2016) ******* ID# 10813 ****

 diody zad3


 ****     INITIAL TRANSIENT SOLUTION       TEMPERATURE =   27.000 DEG C

 ****     CURRENT STEP                     PARAM CAPACITY =   19.8000E-06


******************************************************************************



 NODE   VOLTAGE     NODE   VOLTAGE     NODE   VOLTAGE     NODE   VOLTAGE


(    1)    0.0000  (    2) 76.02E-24  




    VOLTAGE SOURCE CURRENTS
    NAME         CURRENT

    V1          -7.602E-26

    TOTAL POWER DISSIPATION   0.00E+00  WATTS


**** 04/06/19 11:16:42 ******* PSpice Lite (March 2016) ******* ID# 10813 ****

 diody zad3


 ****     FOURIER ANALYSIS                 TEMPERATURE =   27.000 DEG C

 ****     CURRENT STEP                     PARAM CAPACITY =   19.8000E-06


******************************************************************************



FOURIER COMPONENTS OF TRANSIENT RESPONSE V(R1)



 DC COMPONENT =   8.9294E+00

 HARMONIC   FREQUENCY     FOURIER     NORMALIZED     PHASE     NORMALIZED
    NO         (HZ)      COMPONENT     COMPONENT     (DEG)     PHASE (DEG)

     1    1.0000E+03   1.4256E-01   1.0000E+00  -8.3446E+01   0.0000E+00
     2    2.0000E+03   6.9869E-02   4.9012E-01  -1.6761E+02  -7.2108E-01
     3    3.0000E+03   4.5106E-02   3.1641E-01   1.0841E+02   3.5875E+02
     4    4.0000E+03   3.2337E-02   2.2684E-01   2.4598E+01   3.5838E+02
     5    5.0000E+03   2.4374E-02   1.7098E-01  -5.9079E+01   3.5815E+02
     6    6.0000E+03   1.8867E-02   1.3235E-01  -1.4267E+02   3.5800E+02
     7    7.0000E+03   1.4825E-02   1.0399E-01   1.3388E+02   7.1800E+02
     8    8.0000E+03   1.1727E-02   8.2266E-02   5.0705E+01   7.1827E+02
     9    9.0000E+03   9.2729E-03   6.5048E-02  -3.2134E+01   7.1888E+02


     TOTAL HARMONIC DISTORTION =   6.7849E+01 PERCENT

**** 04/06/19 11:16:42 ******* PSpice Lite (March 2016) ******* ID# 10813 ****

 diody zad3


 ****     INITIAL TRANSIENT SOLUTION       TEMPERATURE =   27.000 DEG C

 ****     CURRENT STEP                     PARAM CAPACITY =   20.0000E-06


******************************************************************************



 NODE   VOLTAGE     NODE   VOLTAGE     NODE   VOLTAGE     NODE   VOLTAGE


(    1)    0.0000  (    2) 76.02E-24  




    VOLTAGE SOURCE CURRENTS
    NAME         CURRENT

    V1          -7.602E-26

    TOTAL POWER DISSIPATION   0.00E+00  WATTS


**** 04/06/19 11:16:42 ******* PSpice Lite (March 2016) ******* ID# 10813 ****

 diody zad3


 ****     FOURIER ANALYSIS                 TEMPERATURE =   27.000 DEG C

 ****     CURRENT STEP                     PARAM CAPACITY =   20.0000E-06


******************************************************************************



FOURIER COMPONENTS OF TRANSIENT RESPONSE V(R1)



 DC COMPONENT =   8.9306E+00

 HARMONIC   FREQUENCY     FOURIER     NORMALIZED     PHASE     NORMALIZED
    NO         (HZ)      COMPONENT     COMPONENT     (DEG)     PHASE (DEG)

     1    1.0000E+03   1.4120E-01   1.0000E+00  -8.3515E+01   0.0000E+00
     2    2.0000E+03   6.9236E-02   4.9035E-01  -1.6771E+02  -6.8036E-01
     3    3.0000E+03   4.4694E-02   3.1653E-01   1.0829E+02   3.5883E+02
     4    4.0000E+03   3.2035E-02   2.2688E-01   2.4409E+01   3.5847E+02
     5    5.0000E+03   2.4157E-02   1.7109E-01  -5.9354E+01   3.5822E+02
     6    6.0000E+03   1.8713E-02   1.3253E-01  -1.4300E+02   3.5809E+02
     7    7.0000E+03   1.4704E-02   1.0414E-01   1.3350E+02   7.1811E+02
     8    8.0000E+03   1.1625E-02   8.2328E-02   5.0233E+01   7.1835E+02
     9    9.0000E+03   9.1899E-03   6.5086E-02  -3.2758E+01   7.1887E+02


     TOTAL HARMONIC DISTORTION =   6.7882E+01 PERCENT


          JOB CONCLUDED

**** 04/06/19 11:16:42 ******* PSpice Lite (March 2016) ******* ID# 10813 ****

 diody zad3


 ****     JOB STATISTICS SUMMARY

 ****     CURRENT STEP                     PARAM CAPACITY =   20.0000E-06


******************************************************************************



  Total job time (using Solver 1)   =        1.30
