
**** 04/06/19 11:54:24 ******* PSpice Lite (March 2016) ******* ID# 10813 ****

 diody zad4


 ****     CIRCUIT DESCRIPTION


******************************************************************************



*-------
.LIB EVAL.LIB 
.PARAM AMPL = 10
*-------
V_IN 1 0 SIN(0 {AMPL} 1k 0 0 0)
V1 3 0 5
V2 0 4 4
*-------        
R1 1 2 1k
D1 2 3 D1N4148
D2 4 2 D1N4148

*-------
.TRAN 0 5m 
.FOUR 1k V(2)
.STEP LIN PARAM AMPL 0 0.5 0.01
.PROBE

.END

**** 04/06/19 11:54:24 ******* PSpice Lite (March 2016) ******* ID# 10813 ****

 diody zad4


 ****     Diode MODEL PARAMETERS


******************************************************************************




               D1N4148         
          IS    2.682000E-09 
           N    1.836        
         ISR    1.565000E-09 
         IKF     .04417      
          BV  100            
         IBV  100.000000E-06 
          RS     .5664       
          TT   11.540000E-09 
         CJO    4.000000E-12 
          VJ     .5          
           M     .3333       


**** 04/06/19 11:54:24 ******* PSpice Lite (March 2016) ******* ID# 10813 ****

 diody zad4


 ****     INITIAL TRANSIENT SOLUTION       TEMPERATURE =   27.000 DEG C

 ****     CURRENT STEP                     PARAM AMPL =    0     


******************************************************************************



 NODE   VOLTAGE     NODE   VOLTAGE     NODE   VOLTAGE     NODE   VOLTAGE


(    1)    0.0000  (    2) 225.1E-09  (    3)    5.0000  (    4)   -4.0000  




    VOLTAGE SOURCE CURRENTS
    NAME         CURRENT

    V_IN         2.251E-10
    V1          -6.162E-09
    V2          -5.937E-09

    TOTAL POWER DISSIPATION   5.46E-08  WATTS


**** 04/06/19 11:54:24 ******* PSpice Lite (March 2016) ******* ID# 10813 ****

 diody zad4


 ****     FOURIER ANALYSIS                 TEMPERATURE =   27.000 DEG C

 ****     CURRENT STEP                     PARAM AMPL =    0     


******************************************************************************



FOURIER COMPONENTS OF TRANSIENT RESPONSE V(2)



 DC COMPONENT =   2.2515E-07

 HARMONIC   FREQUENCY     FOURIER     NORMALIZED     PHASE     NORMALIZED
    NO         (HZ)      COMPONENT     COMPONENT     (DEG)     PHASE (DEG)

     1    1.0000E+03   3.2394E-23   1.0000E+00  -1.4551E+02   0.0000E+00
     2    2.0000E+03   4.1582E-23   1.2836E+00  -1.0666E+02   1.8435E+02
     3    3.0000E+03   3.2233E-23   9.9500E-01   2.7086E+01   4.6361E+02
     4    4.0000E+03   5.6784E-23   1.7529E+00  -1.7181E+01   5.6485E+02
     5    5.0000E+03   3.7775E-23   1.1661E+00  -1.5095E+02   5.7659E+02
     6    6.0000E+03   1.5332E-22   4.7330E+00  -1.1636E+01   8.6140E+02
     7    7.0000E+03   1.7036E-22   5.2589E+00  -5.2887E-01   1.0180E+03
     8    8.0000E+03   5.0073E-22   1.5457E+01   3.8753E+01   1.2028E+03
     9    9.0000E+03   1.2383E-22   3.8227E+00   9.2669E+01   1.4022E+03


     TOTAL HARMONIC DISTORTION =   1.7626E+03 PERCENT

**** 04/06/19 11:54:24 ******* PSpice Lite (March 2016) ******* ID# 10813 ****

 diody zad4


 ****     INITIAL TRANSIENT SOLUTION       TEMPERATURE =   27.000 DEG C

 ****     CURRENT STEP                     PARAM AMPL =     .01  


******************************************************************************



 NODE   VOLTAGE     NODE   VOLTAGE     NODE   VOLTAGE     NODE   VOLTAGE


(    1)    0.0000  (    2) 225.1E-09  (    3)    5.0000  (    4)   -4.0000  




    VOLTAGE SOURCE CURRENTS
    NAME         CURRENT

    V_IN         2.251E-10
    V1          -6.162E-09
    V2          -5.937E-09

    TOTAL POWER DISSIPATION   5.46E-08  WATTS


**** 04/06/19 11:54:24 ******* PSpice Lite (March 2016) ******* ID# 10813 ****

 diody zad4


 ****     FOURIER ANALYSIS                 TEMPERATURE =   27.000 DEG C

 ****     CURRENT STEP                     PARAM AMPL =     .01  


******************************************************************************



FOURIER COMPONENTS OF TRANSIENT RESPONSE V(2)



 DC COMPONENT =   3.5860E-06

 HARMONIC   FREQUENCY     FOURIER     NORMALIZED     PHASE     NORMALIZED
    NO         (HZ)      COMPONENT     COMPONENT     (DEG)     PHASE (DEG)

     1    1.0000E+03   9.6762E-03   1.0000E+00   2.8757E-02   0.0000E+00
     2    2.0000E+03   4.3897E-06   4.5366E-04   6.7358E+01   6.7300E+01
     3    3.0000E+03   5.2893E-06   5.4663E-04   7.1502E+01   7.1416E+01
     4    4.0000E+03   5.9402E-06   6.1390E-04   6.6904E+01   6.6789E+01
     5    5.0000E+03   6.3542E-06   6.5668E-04   6.2296E+01   6.2152E+01
     6    6.0000E+03   6.5201E-06   6.7383E-04   5.9637E+01   5.9464E+01
     7    7.0000E+03   6.5891E-06   6.8096E-04   6.0140E+01   5.9938E+01
     8    8.0000E+03   7.0837E-06   7.3208E-04   6.5928E+01   6.5698E+01
     9    9.0000E+03   1.2630E-04   1.3052E-02   7.7983E+01   7.7724E+01


     TOTAL HARMONIC DISTORTION =   1.3158E+00 PERCENT

**** 04/06/19 11:54:24 ******* PSpice Lite (March 2016) ******* ID# 10813 ****

 diody zad4


 ****     INITIAL TRANSIENT SOLUTION       TEMPERATURE =   27.000 DEG C

 ****     CURRENT STEP                     PARAM AMPL =     .02  


******************************************************************************



 NODE   VOLTAGE     NODE   VOLTAGE     NODE   VOLTAGE     NODE   VOLTAGE


(    1)    0.0000  (    2) 225.1E-09  (    3)    5.0000  (    4)   -4.0000  




    VOLTAGE SOURCE CURRENTS
    NAME         CURRENT

    V_IN         2.251E-10
    V1          -6.162E-09
    V2          -5.937E-09

    TOTAL POWER DISSIPATION   5.46E-08  WATTS


**** 04/06/19 11:54:24 ******* PSpice Lite (March 2016) ******* ID# 10813 ****

 diody zad4


 ****     FOURIER ANALYSIS                 TEMPERATURE =   27.000 DEG C

 ****     CURRENT STEP                     PARAM AMPL =     .02  


******************************************************************************



FOURIER COMPONENTS OF TRANSIENT RESPONSE V(2)



 DC COMPONENT =   6.9470E-06

 HARMONIC   FREQUENCY     FOURIER     NORMALIZED     PHASE     NORMALIZED
    NO         (HZ)      COMPONENT     COMPONENT     (DEG)     PHASE (DEG)

     1    1.0000E+03   1.9352E-02   1.0000E+00   2.8757E-02   0.0000E+00
     2    2.0000E+03   8.7796E-06   4.5367E-04   6.7358E+01   6.7300E+01
     3    3.0000E+03   1.0579E-05   5.4663E-04   7.1501E+01   7.1414E+01
     4    4.0000E+03   1.1880E-05   6.1389E-04   6.6904E+01   6.6789E+01
     5    5.0000E+03   1.2708E-05   6.5668E-04   6.2296E+01   6.2152E+01
     6    6.0000E+03   1.3040E-05   6.7383E-04   5.9637E+01   5.9464E+01
     7    7.0000E+03   1.3178E-05   6.8096E-04   6.0140E+01   5.9939E+01
     8    8.0000E+03   1.4167E-05   7.3208E-04   6.5928E+01   6.5698E+01
     9    9.0000E+03   2.5259E-04   1.3052E-02   7.7983E+01   7.7724E+01


     TOTAL HARMONIC DISTORTION =   1.3158E+00 PERCENT

**** 04/06/19 11:54:24 ******* PSpice Lite (March 2016) ******* ID# 10813 ****

 diody zad4


 ****     INITIAL TRANSIENT SOLUTION       TEMPERATURE =   27.000 DEG C

 ****     CURRENT STEP                     PARAM AMPL =     .03  


******************************************************************************



 NODE   VOLTAGE     NODE   VOLTAGE     NODE   VOLTAGE     NODE   VOLTAGE


(    1)    0.0000  (    2) 225.1E-09  (    3)    5.0000  (    4)   -4.0000  




    VOLTAGE SOURCE CURRENTS
    NAME         CURRENT

    V_IN         2.251E-10
    V1          -6.162E-09
    V2          -5.937E-09

    TOTAL POWER DISSIPATION   5.46E-08  WATTS


**** 04/06/19 11:54:24 ******* PSpice Lite (March 2016) ******* ID# 10813 ****

 diody zad4


 ****     FOURIER ANALYSIS                 TEMPERATURE =   27.000 DEG C

 ****     CURRENT STEP                     PARAM AMPL =     .03  


******************************************************************************



FOURIER COMPONENTS OF TRANSIENT RESPONSE V(2)



 DC COMPONENT =   1.0308E-05

 HARMONIC   FREQUENCY     FOURIER     NORMALIZED     PHASE     NORMALIZED
    NO         (HZ)      COMPONENT     COMPONENT     (DEG)     PHASE (DEG)

     1    1.0000E+03   2.9028E-02   1.0000E+00   2.8757E-02   0.0000E+00
     2    2.0000E+03   1.3169E-05   4.5364E-04   6.7357E+01   6.7300E+01
     3    3.0000E+03   1.5868E-05   5.4663E-04   7.1503E+01   7.1416E+01
     4    4.0000E+03   1.7821E-05   6.1390E-04   6.6904E+01   6.6789E+01
     5    5.0000E+03   1.9063E-05   6.5668E-04   6.2296E+01   6.2152E+01
     6    6.0000E+03   1.9560E-05   6.7383E-04   5.9637E+01   5.9464E+01
     7    7.0000E+03   1.9767E-05   6.8096E-04   6.0140E+01   5.9938E+01
     8    8.0000E+03   2.1251E-05   7.3207E-04   6.5928E+01   6.5698E+01
     9    9.0000E+03   3.7889E-04   1.3052E-02   7.7983E+01   7.7724E+01


     TOTAL HARMONIC DISTORTION =   1.3158E+00 PERCENT

**** 04/06/19 11:54:24 ******* PSpice Lite (March 2016) ******* ID# 10813 ****

 diody zad4


 ****     INITIAL TRANSIENT SOLUTION       TEMPERATURE =   27.000 DEG C

 ****     CURRENT STEP                     PARAM AMPL =     .04  


******************************************************************************



 NODE   VOLTAGE     NODE   VOLTAGE     NODE   VOLTAGE     NODE   VOLTAGE


(    1)    0.0000  (    2) 225.1E-09  (    3)    5.0000  (    4)   -4.0000  




    VOLTAGE SOURCE CURRENTS
    NAME         CURRENT

    V_IN         2.251E-10
    V1          -6.162E-09
    V2          -5.937E-09

    TOTAL POWER DISSIPATION   5.46E-08  WATTS


**** 04/06/19 11:54:24 ******* PSpice Lite (March 2016) ******* ID# 10813 ****

 diody zad4


 ****     FOURIER ANALYSIS                 TEMPERATURE =   27.000 DEG C

 ****     CURRENT STEP                     PARAM AMPL =     .04  


******************************************************************************



FOURIER COMPONENTS OF TRANSIENT RESPONSE V(2)



 DC COMPONENT =   1.3669E-05

 HARMONIC   FREQUENCY     FOURIER     NORMALIZED     PHASE     NORMALIZED
    NO         (HZ)      COMPONENT     COMPONENT     (DEG)     PHASE (DEG)

     1    1.0000E+03   3.8705E-02   1.0000E+00   2.8757E-02   0.0000E+00
     2    2.0000E+03   1.7558E-05   4.5364E-04   6.7358E+01   6.7300E+01
     3    3.0000E+03   2.1157E-05   5.4663E-04   7.1501E+01   7.1414E+01
     4    4.0000E+03   2.3761E-05   6.1390E-04   6.6904E+01   6.6789E+01
     5    5.0000E+03   2.5417E-05   6.5668E-04   6.2296E+01   6.2152E+01
     6    6.0000E+03   2.6080E-05   6.7383E-04   5.9637E+01   5.9464E+01
     7    7.0000E+03   2.6356E-05   6.8096E-04   6.0140E+01   5.9939E+01
     8    8.0000E+03   2.8335E-05   7.3207E-04   6.5928E+01   6.5698E+01
     9    9.0000E+03   5.0519E-04   1.3052E-02   7.7983E+01   7.7724E+01


     TOTAL HARMONIC DISTORTION =   1.3158E+00 PERCENT

**** 04/06/19 11:54:24 ******* PSpice Lite (March 2016) ******* ID# 10813 ****

 diody zad4


 ****     INITIAL TRANSIENT SOLUTION       TEMPERATURE =   27.000 DEG C

 ****     CURRENT STEP                     PARAM AMPL =     .05  


******************************************************************************



 NODE   VOLTAGE     NODE   VOLTAGE     NODE   VOLTAGE     NODE   VOLTAGE


(    1)    0.0000  (    2) 225.1E-09  (    3)    5.0000  (    4)   -4.0000  




    VOLTAGE SOURCE CURRENTS
    NAME         CURRENT

    V_IN         2.251E-10
    V1          -6.162E-09
    V2          -5.937E-09

    TOTAL POWER DISSIPATION   5.46E-08  WATTS


**** 04/06/19 11:54:24 ******* PSpice Lite (March 2016) ******* ID# 10813 ****

 diody zad4


 ****     FOURIER ANALYSIS                 TEMPERATURE =   27.000 DEG C

 ****     CURRENT STEP                     PARAM AMPL =     .05  


******************************************************************************



FOURIER COMPONENTS OF TRANSIENT RESPONSE V(2)



 DC COMPONENT =   1.7030E-05

 HARMONIC   FREQUENCY     FOURIER     NORMALIZED     PHASE     NORMALIZED
    NO         (HZ)      COMPONENT     COMPONENT     (DEG)     PHASE (DEG)

     1    1.0000E+03   4.8381E-02   1.0000E+00   2.8757E-02   0.0000E+00
     2    2.0000E+03   2.1948E-05   4.5364E-04   6.7357E+01   6.7300E+01
     3    3.0000E+03   2.6446E-05   5.4663E-04   7.1501E+01   7.1415E+01
     4    4.0000E+03   2.9701E-05   6.1390E-04   6.6904E+01   6.6789E+01
     5    5.0000E+03   3.1771E-05   6.5668E-04   6.2296E+01   6.2152E+01
     6    6.0000E+03   3.2601E-05   6.7384E-04   5.9637E+01   5.9464E+01
     7    7.0000E+03   3.2945E-05   6.8096E-04   6.0140E+01   5.9939E+01
     8    8.0000E+03   3.5418E-05   7.3208E-04   6.5928E+01   6.5698E+01
     9    9.0000E+03   6.3149E-04   1.3052E-02   7.7983E+01   7.7724E+01


     TOTAL HARMONIC DISTORTION =   1.3158E+00 PERCENT

**** 04/06/19 11:54:24 ******* PSpice Lite (March 2016) ******* ID# 10813 ****

 diody zad4


 ****     INITIAL TRANSIENT SOLUTION       TEMPERATURE =   27.000 DEG C

 ****     CURRENT STEP                     PARAM AMPL =     .06  


******************************************************************************



 NODE   VOLTAGE     NODE   VOLTAGE     NODE   VOLTAGE     NODE   VOLTAGE


(    1)    0.0000  (    2) 225.1E-09  (    3)    5.0000  (    4)   -4.0000  




    VOLTAGE SOURCE CURRENTS
    NAME         CURRENT

    V_IN         2.251E-10
    V1          -6.162E-09
    V2          -5.937E-09

    TOTAL POWER DISSIPATION   5.46E-08  WATTS


**** 04/06/19 11:54:24 ******* PSpice Lite (March 2016) ******* ID# 10813 ****

 diody zad4


 ****     FOURIER ANALYSIS                 TEMPERATURE =   27.000 DEG C

 ****     CURRENT STEP                     PARAM AMPL =     .06  


******************************************************************************



FOURIER COMPONENTS OF TRANSIENT RESPONSE V(2)



 DC COMPONENT =   2.0390E-05

 HARMONIC   FREQUENCY     FOURIER     NORMALIZED     PHASE     NORMALIZED
    NO         (HZ)      COMPONENT     COMPONENT     (DEG)     PHASE (DEG)

     1    1.0000E+03   5.8057E-02   1.0000E+00   2.8756E-02   0.0000E+00
     2    2.0000E+03   2.6337E-05   4.5364E-04   6.7355E+01   6.7298E+01
     3    3.0000E+03   3.1735E-05   5.4663E-04   7.1500E+01   7.1414E+01
     4    4.0000E+03   3.5641E-05   6.1389E-04   6.6904E+01   6.6789E+01
     5    5.0000E+03   3.8116E-05   6.5652E-04   6.2301E+01   6.2157E+01
     6    6.0000E+03   3.9120E-05   6.7382E-04   5.9636E+01   5.9463E+01
     7    7.0000E+03   3.9534E-05   6.8095E-04   6.0139E+01   5.9938E+01
     8    8.0000E+03   4.2502E-05   7.3207E-04   6.5928E+01   6.5698E+01
     9    9.0000E+03   7.5778E-04   1.3052E-02   7.7983E+01   7.7724E+01


     TOTAL HARMONIC DISTORTION =   1.3158E+00 PERCENT

**** 04/06/19 11:54:24 ******* PSpice Lite (March 2016) ******* ID# 10813 ****

 diody zad4


 ****     INITIAL TRANSIENT SOLUTION       TEMPERATURE =   27.000 DEG C

 ****     CURRENT STEP                     PARAM AMPL =     .07  


******************************************************************************



 NODE   VOLTAGE     NODE   VOLTAGE     NODE   VOLTAGE     NODE   VOLTAGE


(    1)    0.0000  (    2) 225.1E-09  (    3)    5.0000  (    4)   -4.0000  




    VOLTAGE SOURCE CURRENTS
    NAME         CURRENT

    V_IN         2.251E-10
    V1          -6.162E-09
    V2          -5.937E-09

    TOTAL POWER DISSIPATION   5.46E-08  WATTS


**** 04/06/19 11:54:24 ******* PSpice Lite (March 2016) ******* ID# 10813 ****

 diody zad4


 ****     FOURIER ANALYSIS                 TEMPERATURE =   27.000 DEG C

 ****     CURRENT STEP                     PARAM AMPL =     .07  


******************************************************************************



FOURIER COMPONENTS OF TRANSIENT RESPONSE V(2)



 DC COMPONENT =   2.3752E-05

 HARMONIC   FREQUENCY     FOURIER     NORMALIZED     PHASE     NORMALIZED
    NO         (HZ)      COMPONENT     COMPONENT     (DEG)     PHASE (DEG)

     1    1.0000E+03   6.7733E-02   1.0000E+00   2.8755E-02   0.0000E+00
     2    2.0000E+03   3.0725E-05   4.5361E-04   6.7355E+01   6.7297E+01
     3    3.0000E+03   3.7024E-05   5.4662E-04   7.1499E+01   7.1413E+01
     4    4.0000E+03   4.1580E-05   6.1388E-04   6.6903E+01   6.6788E+01
     5    5.0000E+03   4.4460E-05   6.5640E-04   6.2304E+01   6.2161E+01
     6    6.0000E+03   4.5640E-05   6.7382E-04   5.9635E+01   5.9463E+01
     7    7.0000E+03   4.6123E-05   6.8095E-04   6.0139E+01   5.9937E+01
     8    8.0000E+03   4.9585E-05   7.3206E-04   6.5927E+01   6.5697E+01
     9    9.0000E+03   8.8408E-04   1.3052E-02   7.7983E+01   7.7724E+01


     TOTAL HARMONIC DISTORTION =   1.3158E+00 PERCENT

**** 04/06/19 11:54:24 ******* PSpice Lite (March 2016) ******* ID# 10813 ****

 diody zad4


 ****     INITIAL TRANSIENT SOLUTION       TEMPERATURE =   27.000 DEG C

 ****     CURRENT STEP                     PARAM AMPL =     .08  


******************************************************************************



 NODE   VOLTAGE     NODE   VOLTAGE     NODE   VOLTAGE     NODE   VOLTAGE


(    1)    0.0000  (    2) 225.1E-09  (    3)    5.0000  (    4)   -4.0000  




    VOLTAGE SOURCE CURRENTS
    NAME         CURRENT

    V_IN         2.251E-10
    V1          -6.162E-09
    V2          -5.937E-09

    TOTAL POWER DISSIPATION   5.46E-08  WATTS


**** 04/06/19 11:54:24 ******* PSpice Lite (March 2016) ******* ID# 10813 ****

 diody zad4


 ****     FOURIER ANALYSIS                 TEMPERATURE =   27.000 DEG C

 ****     CURRENT STEP                     PARAM AMPL =     .08  


******************************************************************************



FOURIER COMPONENTS OF TRANSIENT RESPONSE V(2)



 DC COMPONENT =   2.7112E-05

 HARMONIC   FREQUENCY     FOURIER     NORMALIZED     PHASE     NORMALIZED
    NO         (HZ)      COMPONENT     COMPONENT     (DEG)     PHASE (DEG)

     1    1.0000E+03   7.7409E-02   1.0000E+00   2.8756E-02   0.0000E+00
     2    2.0000E+03   3.5116E-05   4.5364E-04   6.7355E+01   6.7298E+01
     3    3.0000E+03   4.2312E-05   5.4660E-04   7.1500E+01   7.1414E+01
     4    4.0000E+03   4.7519E-05   6.1387E-04   6.6903E+01   6.6788E+01
     5    5.0000E+03   5.0812E-05   6.5641E-04   6.2304E+01   6.2160E+01
     6    6.0000E+03   5.2160E-05   6.7382E-04   5.9636E+01   5.9463E+01
     7    7.0000E+03   5.2712E-05   6.8095E-04   6.0139E+01   5.9937E+01
     8    8.0000E+03   5.6669E-05   7.3206E-04   6.5927E+01   6.5697E+01
     9    9.0000E+03   1.0104E-03   1.3052E-02   7.7983E+01   7.7724E+01


     TOTAL HARMONIC DISTORTION =   1.3158E+00 PERCENT

**** 04/06/19 11:54:24 ******* PSpice Lite (March 2016) ******* ID# 10813 ****

 diody zad4


 ****     INITIAL TRANSIENT SOLUTION       TEMPERATURE =   27.000 DEG C

 ****     CURRENT STEP                     PARAM AMPL =     .09  


******************************************************************************



 NODE   VOLTAGE     NODE   VOLTAGE     NODE   VOLTAGE     NODE   VOLTAGE


(    1)    0.0000  (    2) 225.1E-09  (    3)    5.0000  (    4)   -4.0000  




    VOLTAGE SOURCE CURRENTS
    NAME         CURRENT

    V_IN         2.251E-10
    V1          -6.162E-09
    V2          -5.937E-09

    TOTAL POWER DISSIPATION   5.46E-08  WATTS


**** 04/06/19 11:54:24 ******* PSpice Lite (March 2016) ******* ID# 10813 ****

 diody zad4


 ****     FOURIER ANALYSIS                 TEMPERATURE =   27.000 DEG C

 ****     CURRENT STEP                     PARAM AMPL =     .09  


******************************************************************************



FOURIER COMPONENTS OF TRANSIENT RESPONSE V(2)



 DC COMPONENT =   3.0472E-05

 HARMONIC   FREQUENCY     FOURIER     NORMALIZED     PHASE     NORMALIZED
    NO         (HZ)      COMPONENT     COMPONENT     (DEG)     PHASE (DEG)

     1    1.0000E+03   8.7085E-02   1.0000E+00   2.8755E-02   0.0000E+00
     2    2.0000E+03   3.9505E-05   4.5363E-04   6.7357E+01   6.7300E+01
     3    3.0000E+03   4.7602E-05   5.4662E-04   7.1500E+01   7.1413E+01
     4    4.0000E+03   5.3460E-05   6.1388E-04   6.6903E+01   6.6788E+01
     5    5.0000E+03   5.7163E-05   6.5640E-04   6.2304E+01   6.2160E+01
     6    6.0000E+03   5.8680E-05   6.7382E-04   5.9635E+01   5.9463E+01
     7    7.0000E+03   5.9301E-05   6.8095E-04   6.0139E+01   5.9937E+01
     8    8.0000E+03   6.3752E-05   7.3206E-04   6.5927E+01   6.5697E+01
     9    9.0000E+03   1.1367E-03   1.3052E-02   7.7983E+01   7.7724E+01


     TOTAL HARMONIC DISTORTION =   1.3158E+00 PERCENT

**** 04/06/19 11:54:24 ******* PSpice Lite (March 2016) ******* ID# 10813 ****

 diody zad4


 ****     INITIAL TRANSIENT SOLUTION       TEMPERATURE =   27.000 DEG C

 ****     CURRENT STEP                     PARAM AMPL =     .1   


******************************************************************************



 NODE   VOLTAGE     NODE   VOLTAGE     NODE   VOLTAGE     NODE   VOLTAGE


(    1)    0.0000  (    2) 225.1E-09  (    3)    5.0000  (    4)   -4.0000  




    VOLTAGE SOURCE CURRENTS
    NAME         CURRENT

    V_IN         2.251E-10
    V1          -6.162E-09
    V2          -5.937E-09

    TOTAL POWER DISSIPATION   5.46E-08  WATTS


**** 04/06/19 11:54:24 ******* PSpice Lite (March 2016) ******* ID# 10813 ****

 diody zad4


 ****     FOURIER ANALYSIS                 TEMPERATURE =   27.000 DEG C

 ****     CURRENT STEP                     PARAM AMPL =     .1   


******************************************************************************



FOURIER COMPONENTS OF TRANSIENT RESPONSE V(2)



 DC COMPONENT =   3.3834E-05

 HARMONIC   FREQUENCY     FOURIER     NORMALIZED     PHASE     NORMALIZED
    NO         (HZ)      COMPONENT     COMPONENT     (DEG)     PHASE (DEG)

     1    1.0000E+03   9.6762E-02   1.0000E+00   2.8755E-02   0.0000E+00
     2    2.0000E+03   4.3893E-05   4.5362E-04   6.7356E+01   6.7298E+01
     3    3.0000E+03   5.2891E-05   5.4661E-04   7.1500E+01   7.1413E+01
     4    4.0000E+03   5.9399E-05   6.1387E-04   6.6901E+01   6.6786E+01
     5    5.0000E+03   6.3513E-05   6.5639E-04   6.2305E+01   6.2161E+01
     6    6.0000E+03   6.5200E-05   6.7382E-04   5.9636E+01   5.9463E+01
     7    7.0000E+03   6.5889E-05   6.8095E-04   6.0139E+01   5.9937E+01
     8    8.0000E+03   7.0835E-05   7.3206E-04   6.5927E+01   6.5697E+01
     9    9.0000E+03   1.2630E-03   1.3052E-02   7.7983E+01   7.7724E+01


     TOTAL HARMONIC DISTORTION =   1.3158E+00 PERCENT

**** 04/06/19 11:54:24 ******* PSpice Lite (March 2016) ******* ID# 10813 ****

 diody zad4


 ****     INITIAL TRANSIENT SOLUTION       TEMPERATURE =   27.000 DEG C

 ****     CURRENT STEP                     PARAM AMPL =     .11  


******************************************************************************



 NODE   VOLTAGE     NODE   VOLTAGE     NODE   VOLTAGE     NODE   VOLTAGE


(    1)    0.0000  (    2) 225.1E-09  (    3)    5.0000  (    4)   -4.0000  




    VOLTAGE SOURCE CURRENTS
    NAME         CURRENT

    V_IN         2.251E-10
    V1          -6.162E-09
    V2          -5.937E-09

    TOTAL POWER DISSIPATION   5.46E-08  WATTS


**** 04/06/19 11:54:24 ******* PSpice Lite (March 2016) ******* ID# 10813 ****

 diody zad4


 ****     FOURIER ANALYSIS                 TEMPERATURE =   27.000 DEG C

 ****     CURRENT STEP                     PARAM AMPL =     .11  


******************************************************************************



FOURIER COMPONENTS OF TRANSIENT RESPONSE V(2)



 DC COMPONENT =   3.7195E-05

 HARMONIC   FREQUENCY     FOURIER     NORMALIZED     PHASE     NORMALIZED
    NO         (HZ)      COMPONENT     COMPONENT     (DEG)     PHASE (DEG)

     1    1.0000E+03   1.0644E-01   1.0000E+00   2.8755E-02   0.0000E+00
     2    2.0000E+03   4.8284E-05   4.5364E-04   6.7355E+01   6.7298E+01
     3    3.0000E+03   5.8180E-05   5.4661E-04   7.1500E+01   7.1414E+01
     4    4.0000E+03   6.5339E-05   6.1387E-04   6.6903E+01   6.6788E+01
     5    5.0000E+03   6.9865E-05   6.5639E-04   6.2304E+01   6.2161E+01
     6    6.0000E+03   7.1720E-05   6.7382E-04   5.9635E+01   5.9463E+01
     7    7.0000E+03   7.2478E-05   6.8095E-04   6.0139E+01   5.9937E+01
     8    8.0000E+03   7.7919E-05   7.3206E-04   6.5927E+01   6.5697E+01
     9    9.0000E+03   1.3893E-03   1.3052E-02   7.7983E+01   7.7724E+01


     TOTAL HARMONIC DISTORTION =   1.3158E+00 PERCENT

**** 04/06/19 11:54:24 ******* PSpice Lite (March 2016) ******* ID# 10813 ****

 diody zad4


 ****     INITIAL TRANSIENT SOLUTION       TEMPERATURE =   27.000 DEG C

 ****     CURRENT STEP                     PARAM AMPL =     .12  


******************************************************************************



 NODE   VOLTAGE     NODE   VOLTAGE     NODE   VOLTAGE     NODE   VOLTAGE


(    1)    0.0000  (    2) 225.1E-09  (    3)    5.0000  (    4)   -4.0000  




    VOLTAGE SOURCE CURRENTS
    NAME         CURRENT

    V_IN         2.251E-10
    V1          -6.162E-09
    V2          -5.937E-09

    TOTAL POWER DISSIPATION   5.46E-08  WATTS


**** 04/06/19 11:54:24 ******* PSpice Lite (March 2016) ******* ID# 10813 ****

 diody zad4


 ****     FOURIER ANALYSIS                 TEMPERATURE =   27.000 DEG C

 ****     CURRENT STEP                     PARAM AMPL =     .12  


******************************************************************************



FOURIER COMPONENTS OF TRANSIENT RESPONSE V(2)



 DC COMPONENT =   4.0555E-05

 HARMONIC   FREQUENCY     FOURIER     NORMALIZED     PHASE     NORMALIZED
    NO         (HZ)      COMPONENT     COMPONENT     (DEG)     PHASE (DEG)

     1    1.0000E+03   1.1611E-01   1.0000E+00   2.8756E-02   0.0000E+00
     2    2.0000E+03   5.2673E-05   4.5363E-04   6.7355E+01   6.7297E+01
     3    3.0000E+03   6.3469E-05   5.4661E-04   7.1500E+01   7.1413E+01
     4    4.0000E+03   7.1279E-05   6.1387E-04   6.6902E+01   6.6787E+01
     5    5.0000E+03   7.6215E-05   6.5638E-04   6.2305E+01   6.2161E+01
     6    6.0000E+03   7.8240E-05   6.7382E-04   5.9635E+01   5.9463E+01
     7    7.0000E+03   7.9067E-05   6.8095E-04   6.0139E+01   5.9937E+01
     8    8.0000E+03   8.5003E-05   7.3206E-04   6.5927E+01   6.5697E+01
     9    9.0000E+03   1.5156E-03   1.3052E-02   7.7983E+01   7.7724E+01


     TOTAL HARMONIC DISTORTION =   1.3158E+00 PERCENT

**** 04/06/19 11:54:24 ******* PSpice Lite (March 2016) ******* ID# 10813 ****

 diody zad4


 ****     INITIAL TRANSIENT SOLUTION       TEMPERATURE =   27.000 DEG C

 ****     CURRENT STEP                     PARAM AMPL =     .13  


******************************************************************************



 NODE   VOLTAGE     NODE   VOLTAGE     NODE   VOLTAGE     NODE   VOLTAGE


(    1)    0.0000  (    2) 225.1E-09  (    3)    5.0000  (    4)   -4.0000  




    VOLTAGE SOURCE CURRENTS
    NAME         CURRENT

    V_IN         2.251E-10
    V1          -6.162E-09
    V2          -5.937E-09

    TOTAL POWER DISSIPATION   5.46E-08  WATTS


**** 04/06/19 11:54:24 ******* PSpice Lite (March 2016) ******* ID# 10813 ****

 diody zad4


 ****     FOURIER ANALYSIS                 TEMPERATURE =   27.000 DEG C

 ****     CURRENT STEP                     PARAM AMPL =     .13  


******************************************************************************



FOURIER COMPONENTS OF TRANSIENT RESPONSE V(2)



 DC COMPONENT =   4.3917E-05

 HARMONIC   FREQUENCY     FOURIER     NORMALIZED     PHASE     NORMALIZED
    NO         (HZ)      COMPONENT     COMPONENT     (DEG)     PHASE (DEG)

     1    1.0000E+03   1.2579E-01   1.0000E+00   2.8755E-02   0.0000E+00
     2    2.0000E+03   5.7060E-05   4.5361E-04   6.7353E+01   6.7296E+01
     3    3.0000E+03   6.8757E-05   5.4660E-04   7.1499E+01   7.1413E+01
     4    4.0000E+03   7.7220E-05   6.1388E-04   6.6903E+01   6.6788E+01
     5    5.0000E+03   8.2561E-05   6.5634E-04   6.2306E+01   6.2162E+01
     6    6.0000E+03   8.4759E-05   6.7381E-04   5.9635E+01   5.9462E+01
     7    7.0000E+03   8.5656E-05   6.8094E-04   6.0139E+01   5.9937E+01
     8    8.0000E+03   9.2086E-05   7.3206E-04   6.5927E+01   6.5697E+01
     9    9.0000E+03   1.6419E-03   1.3052E-02   7.7983E+01   7.7724E+01


     TOTAL HARMONIC DISTORTION =   1.3158E+00 PERCENT

**** 04/06/19 11:54:24 ******* PSpice Lite (March 2016) ******* ID# 10813 ****

 diody zad4


 ****     INITIAL TRANSIENT SOLUTION       TEMPERATURE =   27.000 DEG C

 ****     CURRENT STEP                     PARAM AMPL =     .14  


******************************************************************************



 NODE   VOLTAGE     NODE   VOLTAGE     NODE   VOLTAGE     NODE   VOLTAGE


(    1)    0.0000  (    2) 225.1E-09  (    3)    5.0000  (    4)   -4.0000  




    VOLTAGE SOURCE CURRENTS
    NAME         CURRENT

    V_IN         2.251E-10
    V1          -6.162E-09
    V2          -5.937E-09

    TOTAL POWER DISSIPATION   5.46E-08  WATTS


**** 04/06/19 11:54:24 ******* PSpice Lite (March 2016) ******* ID# 10813 ****

 diody zad4


 ****     FOURIER ANALYSIS                 TEMPERATURE =   27.000 DEG C

 ****     CURRENT STEP                     PARAM AMPL =     .14  


******************************************************************************



FOURIER COMPONENTS OF TRANSIENT RESPONSE V(2)



 DC COMPONENT =   4.7276E-05

 HARMONIC   FREQUENCY     FOURIER     NORMALIZED     PHASE     NORMALIZED
    NO         (HZ)      COMPONENT     COMPONENT     (DEG)     PHASE (DEG)

     1    1.0000E+03   1.3547E-01   1.0000E+00   2.8755E-02   0.0000E+00
     2    2.0000E+03   6.1451E-05   4.5363E-04   6.7355E+01   6.7297E+01
     3    3.0000E+03   7.4047E-05   5.4661E-04   7.1501E+01   7.1415E+01
     4    4.0000E+03   8.3159E-05   6.1387E-04   6.6902E+01   6.6787E+01
     5    5.0000E+03   8.8908E-05   6.5631E-04   6.2307E+01   6.2163E+01
     6    6.0000E+03   9.1279E-05   6.7381E-04   5.9635E+01   5.9463E+01
     7    7.0000E+03   9.2245E-05   6.8094E-04   6.0138E+01   5.9937E+01
     8    8.0000E+03   9.9169E-05   7.3206E-04   6.5927E+01   6.5697E+01
     9    9.0000E+03   1.7682E-03   1.3052E-02   7.7983E+01   7.7724E+01


     TOTAL HARMONIC DISTORTION =   1.3158E+00 PERCENT

**** 04/06/19 11:54:24 ******* PSpice Lite (March 2016) ******* ID# 10813 ****

 diody zad4


 ****     INITIAL TRANSIENT SOLUTION       TEMPERATURE =   27.000 DEG C

 ****     CURRENT STEP                     PARAM AMPL =     .15  


******************************************************************************



 NODE   VOLTAGE     NODE   VOLTAGE     NODE   VOLTAGE     NODE   VOLTAGE


(    1)    0.0000  (    2) 225.1E-09  (    3)    5.0000  (    4)   -4.0000  




    VOLTAGE SOURCE CURRENTS
    NAME         CURRENT

    V_IN         2.251E-10
    V1          -6.162E-09
    V2          -5.937E-09

    TOTAL POWER DISSIPATION   5.46E-08  WATTS


**** 04/06/19 11:54:24 ******* PSpice Lite (March 2016) ******* ID# 10813 ****

 diody zad4


 ****     FOURIER ANALYSIS                 TEMPERATURE =   27.000 DEG C

 ****     CURRENT STEP                     PARAM AMPL =     .15  


******************************************************************************



FOURIER COMPONENTS OF TRANSIENT RESPONSE V(2)



 DC COMPONENT =   5.0637E-05

 HARMONIC   FREQUENCY     FOURIER     NORMALIZED     PHASE     NORMALIZED
    NO         (HZ)      COMPONENT     COMPONENT     (DEG)     PHASE (DEG)

     1    1.0000E+03   1.4514E-01   1.0000E+00   2.8755E-02   0.0000E+00
     2    2.0000E+03   6.5840E-05   4.5363E-04   6.7353E+01   6.7295E+01
     3    3.0000E+03   7.9336E-05   5.4661E-04   7.1499E+01   7.1413E+01
     4    4.0000E+03   8.9099E-05   6.1387E-04   6.6901E+01   6.6786E+01
     5    5.0000E+03   9.5259E-05   6.5631E-04   6.2307E+01   6.2163E+01
     6    6.0000E+03   9.7799E-05   6.7382E-04   5.9635E+01   5.9463E+01
     7    7.0000E+03   9.8834E-05   6.8094E-04   6.0138E+01   5.9937E+01
     8    8.0000E+03   1.0625E-04   7.3206E-04   6.5927E+01   6.5697E+01
     9    9.0000E+03   1.8945E-03   1.3052E-02   7.7983E+01   7.7724E+01


     TOTAL HARMONIC DISTORTION =   1.3158E+00 PERCENT

**** 04/06/19 11:54:24 ******* PSpice Lite (March 2016) ******* ID# 10813 ****

 diody zad4


 ****     INITIAL TRANSIENT SOLUTION       TEMPERATURE =   27.000 DEG C

 ****     CURRENT STEP                     PARAM AMPL =     .16  


******************************************************************************



 NODE   VOLTAGE     NODE   VOLTAGE     NODE   VOLTAGE     NODE   VOLTAGE


(    1)    0.0000  (    2) 225.1E-09  (    3)    5.0000  (    4)   -4.0000  




    VOLTAGE SOURCE CURRENTS
    NAME         CURRENT

    V_IN         2.251E-10
    V1          -6.162E-09
    V2          -5.937E-09

    TOTAL POWER DISSIPATION   5.46E-08  WATTS


**** 04/06/19 11:54:24 ******* PSpice Lite (March 2016) ******* ID# 10813 ****

 diody zad4


 ****     FOURIER ANALYSIS                 TEMPERATURE =   27.000 DEG C

 ****     CURRENT STEP                     PARAM AMPL =     .16  


******************************************************************************



FOURIER COMPONENTS OF TRANSIENT RESPONSE V(2)



 DC COMPONENT =   5.3999E-05

 HARMONIC   FREQUENCY     FOURIER     NORMALIZED     PHASE     NORMALIZED
    NO         (HZ)      COMPONENT     COMPONENT     (DEG)     PHASE (DEG)

     1    1.0000E+03   1.5482E-01   1.0000E+00   2.8754E-02   0.0000E+00
     2    2.0000E+03   7.0227E-05   4.5361E-04   6.7352E+01   6.7294E+01
     3    3.0000E+03   8.4625E-05   5.4661E-04   7.1499E+01   7.1413E+01
     4    4.0000E+03   9.5038E-05   6.1387E-04   6.6902E+01   6.6787E+01
     5    5.0000E+03   1.0159E-04   6.5622E-04   6.2310E+01   6.2166E+01
     6    6.0000E+03   1.0432E-04   6.7381E-04   5.9635E+01   5.9462E+01
     7    7.0000E+03   1.0542E-04   6.8094E-04   6.0138E+01   5.9937E+01
     8    8.0000E+03   1.1334E-04   7.3206E-04   6.5927E+01   6.5697E+01
     9    9.0000E+03   2.0208E-03   1.3052E-02   7.7983E+01   7.7724E+01


     TOTAL HARMONIC DISTORTION =   1.3158E+00 PERCENT

**** 04/06/19 11:54:24 ******* PSpice Lite (March 2016) ******* ID# 10813 ****

 diody zad4


 ****     INITIAL TRANSIENT SOLUTION       TEMPERATURE =   27.000 DEG C

 ****     CURRENT STEP                     PARAM AMPL =     .17  


******************************************************************************



 NODE   VOLTAGE     NODE   VOLTAGE     NODE   VOLTAGE     NODE   VOLTAGE


(    1)    0.0000  (    2) 225.1E-09  (    3)    5.0000  (    4)   -4.0000  




    VOLTAGE SOURCE CURRENTS
    NAME         CURRENT

    V_IN         2.251E-10
    V1          -6.162E-09
    V2          -5.937E-09

    TOTAL POWER DISSIPATION   5.46E-08  WATTS


**** 04/06/19 11:54:24 ******* PSpice Lite (March 2016) ******* ID# 10813 ****

 diody zad4


 ****     FOURIER ANALYSIS                 TEMPERATURE =   27.000 DEG C

 ****     CURRENT STEP                     PARAM AMPL =     .17  


******************************************************************************



FOURIER COMPONENTS OF TRANSIENT RESPONSE V(2)



 DC COMPONENT =   5.7357E-05

 HARMONIC   FREQUENCY     FOURIER     NORMALIZED     PHASE     NORMALIZED
    NO         (HZ)      COMPONENT     COMPONENT     (DEG)     PHASE (DEG)

     1    1.0000E+03   1.6449E-01   1.0000E+00   2.8754E-02   0.0000E+00
     2    2.0000E+03   7.4617E-05   4.5361E-04   6.7353E+01   6.7296E+01
     3    3.0000E+03   8.9912E-05   5.4659E-04   7.1499E+01   7.1413E+01
     4    4.0000E+03   1.0098E-04   6.1387E-04   6.6901E+01   6.6786E+01
     5    5.0000E+03   1.0795E-04   6.5622E-04   6.2310E+01   6.2166E+01
     6    6.0000E+03   1.1084E-04   6.7381E-04   5.9635E+01   5.9462E+01
     7    7.0000E+03   1.1201E-04   6.8094E-04   6.0138E+01   5.9937E+01
     8    8.0000E+03   1.2042E-04   7.3206E-04   6.5927E+01   6.5697E+01
     9    9.0000E+03   2.1471E-03   1.3052E-02   7.7983E+01   7.7724E+01


     TOTAL HARMONIC DISTORTION =   1.3158E+00 PERCENT

**** 04/06/19 11:54:24 ******* PSpice Lite (March 2016) ******* ID# 10813 ****

 diody zad4


 ****     INITIAL TRANSIENT SOLUTION       TEMPERATURE =   27.000 DEG C

 ****     CURRENT STEP                     PARAM AMPL =     .18  


******************************************************************************



 NODE   VOLTAGE     NODE   VOLTAGE     NODE   VOLTAGE     NODE   VOLTAGE


(    1)    0.0000  (    2) 225.1E-09  (    3)    5.0000  (    4)   -4.0000  




    VOLTAGE SOURCE CURRENTS
    NAME         CURRENT

    V_IN         2.251E-10
    V1          -6.162E-09
    V2          -5.937E-09

    TOTAL POWER DISSIPATION   5.46E-08  WATTS


**** 04/06/19 11:54:24 ******* PSpice Lite (March 2016) ******* ID# 10813 ****

 diody zad4


 ****     FOURIER ANALYSIS                 TEMPERATURE =   27.000 DEG C

 ****     CURRENT STEP                     PARAM AMPL =     .18  


******************************************************************************



FOURIER COMPONENTS OF TRANSIENT RESPONSE V(2)



 DC COMPONENT =   6.0718E-05

 HARMONIC   FREQUENCY     FOURIER     NORMALIZED     PHASE     NORMALIZED
    NO         (HZ)      COMPONENT     COMPONENT     (DEG)     PHASE (DEG)

     1    1.0000E+03   1.7417E-01   1.0000E+00   2.8754E-02   0.0000E+00
     2    2.0000E+03   7.9010E-05   4.5363E-04   6.7352E+01   6.7295E+01
     3    3.0000E+03   9.5202E-05   5.4660E-04   7.1499E+01   7.1412E+01
     4    4.0000E+03   1.0692E-04   6.1386E-04   6.6902E+01   6.6787E+01
     5    5.0000E+03   1.1429E-04   6.5622E-04   6.2310E+01   6.2166E+01
     6    6.0000E+03   1.1736E-04   6.7381E-04   5.9635E+01   5.9462E+01
     7    7.0000E+03   1.1860E-04   6.8094E-04   6.0138E+01   5.9937E+01
     8    8.0000E+03   1.2750E-04   7.3206E-04   6.5927E+01   6.5697E+01
     9    9.0000E+03   2.2734E-03   1.3052E-02   7.7983E+01   7.7724E+01


     TOTAL HARMONIC DISTORTION =   1.3158E+00 PERCENT

**** 04/06/19 11:54:24 ******* PSpice Lite (March 2016) ******* ID# 10813 ****

 diody zad4


 ****     INITIAL TRANSIENT SOLUTION       TEMPERATURE =   27.000 DEG C

 ****     CURRENT STEP                     PARAM AMPL =     .19  


******************************************************************************



 NODE   VOLTAGE     NODE   VOLTAGE     NODE   VOLTAGE     NODE   VOLTAGE


(    1)    0.0000  (    2) 225.1E-09  (    3)    5.0000  (    4)   -4.0000  




    VOLTAGE SOURCE CURRENTS
    NAME         CURRENT

    V_IN         2.251E-10
    V1          -6.162E-09
    V2          -5.937E-09

    TOTAL POWER DISSIPATION   5.46E-08  WATTS


**** 04/06/19 11:54:24 ******* PSpice Lite (March 2016) ******* ID# 10813 ****

 diody zad4


 ****     FOURIER ANALYSIS                 TEMPERATURE =   27.000 DEG C

 ****     CURRENT STEP                     PARAM AMPL =     .19  


******************************************************************************



FOURIER COMPONENTS OF TRANSIENT RESPONSE V(2)



 DC COMPONENT =   6.4081E-05

 HARMONIC   FREQUENCY     FOURIER     NORMALIZED     PHASE     NORMALIZED
    NO         (HZ)      COMPONENT     COMPONENT     (DEG)     PHASE (DEG)

     1    1.0000E+03   1.8385E-01   1.0000E+00   2.8754E-02   0.0000E+00
     2    2.0000E+03   8.3394E-05   4.5361E-04   6.7352E+01   6.7294E+01
     3    3.0000E+03   1.0049E-04   5.4661E-04   7.1500E+01   7.1414E+01
     4    4.0000E+03   1.1286E-04   6.1387E-04   6.6902E+01   6.6787E+01
     5    5.0000E+03   1.2064E-04   6.5622E-04   6.2310E+01   6.2166E+01
     6    6.0000E+03   1.2388E-04   6.7381E-04   5.9635E+01   5.9462E+01
     7    7.0000E+03   1.2519E-04   6.8094E-04   6.0138E+01   5.9937E+01
     8    8.0000E+03   1.3459E-04   7.3206E-04   6.5927E+01   6.5697E+01
     9    9.0000E+03   2.3996E-03   1.3052E-02   7.7983E+01   7.7724E+01


     TOTAL HARMONIC DISTORTION =   1.3158E+00 PERCENT

**** 04/06/19 11:54:24 ******* PSpice Lite (March 2016) ******* ID# 10813 ****

 diody zad4


 ****     INITIAL TRANSIENT SOLUTION       TEMPERATURE =   27.000 DEG C

 ****     CURRENT STEP                     PARAM AMPL =     .2   


******************************************************************************



 NODE   VOLTAGE     NODE   VOLTAGE     NODE   VOLTAGE     NODE   VOLTAGE


(    1)    0.0000  (    2) 225.1E-09  (    3)    5.0000  (    4)   -4.0000  




    VOLTAGE SOURCE CURRENTS
    NAME         CURRENT

    V_IN         2.251E-10
    V1          -6.162E-09
    V2          -5.937E-09

    TOTAL POWER DISSIPATION   5.46E-08  WATTS


**** 04/06/19 11:54:24 ******* PSpice Lite (March 2016) ******* ID# 10813 ****

 diody zad4


 ****     FOURIER ANALYSIS                 TEMPERATURE =   27.000 DEG C

 ****     CURRENT STEP                     PARAM AMPL =     .2   


******************************************************************************



FOURIER COMPONENTS OF TRANSIENT RESPONSE V(2)



 DC COMPONENT =   6.7439E-05

 HARMONIC   FREQUENCY     FOURIER     NORMALIZED     PHASE     NORMALIZED
    NO         (HZ)      COMPONENT     COMPONENT     (DEG)     PHASE (DEG)

     1    1.0000E+03   1.9352E-01   1.0000E+00   2.8754E-02   0.0000E+00
     2    2.0000E+03   8.7788E-05   4.5363E-04   6.7352E+01   6.7294E+01
     3    3.0000E+03   1.0578E-04   5.4660E-04   7.1498E+01   7.1412E+01
     4    4.0000E+03   1.1880E-04   6.1386E-04   6.6902E+01   6.6787E+01
     5    5.0000E+03   1.2699E-04   6.5621E-04   6.2310E+01   6.2166E+01
     6    6.0000E+03   1.3040E-04   6.7381E-04   5.9635E+01   5.9462E+01
     7    7.0000E+03   1.3178E-04   6.8094E-04   6.0138E+01   5.9937E+01
     8    8.0000E+03   1.4167E-04   7.3206E-04   6.5927E+01   6.5697E+01
     9    9.0000E+03   2.5259E-03   1.3052E-02   7.7983E+01   7.7724E+01


     TOTAL HARMONIC DISTORTION =   1.3158E+00 PERCENT

**** 04/06/19 11:54:24 ******* PSpice Lite (March 2016) ******* ID# 10813 ****

 diody zad4


 ****     INITIAL TRANSIENT SOLUTION       TEMPERATURE =   27.000 DEG C

 ****     CURRENT STEP                     PARAM AMPL =     .21  


******************************************************************************



 NODE   VOLTAGE     NODE   VOLTAGE     NODE   VOLTAGE     NODE   VOLTAGE


(    1)    0.0000  (    2) 225.1E-09  (    3)    5.0000  (    4)   -4.0000  




    VOLTAGE SOURCE CURRENTS
    NAME         CURRENT

    V_IN         2.251E-10
    V1          -6.162E-09
    V2          -5.937E-09

    TOTAL POWER DISSIPATION   5.46E-08  WATTS


**** 04/06/19 11:54:24 ******* PSpice Lite (March 2016) ******* ID# 10813 ****

 diody zad4


 ****     FOURIER ANALYSIS                 TEMPERATURE =   27.000 DEG C

 ****     CURRENT STEP                     PARAM AMPL =     .21  


******************************************************************************



FOURIER COMPONENTS OF TRANSIENT RESPONSE V(2)



 DC COMPONENT =   7.0803E-05

 HARMONIC   FREQUENCY     FOURIER     NORMALIZED     PHASE     NORMALIZED
    NO         (HZ)      COMPONENT     COMPONENT     (DEG)     PHASE (DEG)

     1    1.0000E+03   2.0320E-01   1.0000E+00   2.8754E-02   0.0000E+00
     2    2.0000E+03   9.2173E-05   4.5361E-04   6.7353E+01   6.7295E+01
     3    3.0000E+03   1.1107E-04   5.4660E-04   7.1499E+01   7.1413E+01
     4    4.0000E+03   1.2474E-04   6.1387E-04   6.6902E+01   6.6787E+01
     5    5.0000E+03   1.3334E-04   6.5622E-04   6.2310E+01   6.2166E+01
     6    6.0000E+03   1.3692E-04   6.7381E-04   5.9635E+01   5.9462E+01
     7    7.0000E+03   1.3837E-04   6.8094E-04   6.0138E+01   5.9937E+01
     8    8.0000E+03   1.4875E-04   7.3206E-04   6.5927E+01   6.5697E+01
     9    9.0000E+03   2.6522E-03   1.3052E-02   7.7983E+01   7.7724E+01


     TOTAL HARMONIC DISTORTION =   1.3158E+00 PERCENT

**** 04/06/19 11:54:24 ******* PSpice Lite (March 2016) ******* ID# 10813 ****

 diody zad4


 ****     INITIAL TRANSIENT SOLUTION       TEMPERATURE =   27.000 DEG C

 ****     CURRENT STEP                     PARAM AMPL =     .22  


******************************************************************************



 NODE   VOLTAGE     NODE   VOLTAGE     NODE   VOLTAGE     NODE   VOLTAGE


(    1)    0.0000  (    2) 225.1E-09  (    3)    5.0000  (    4)   -4.0000  




    VOLTAGE SOURCE CURRENTS
    NAME         CURRENT

    V_IN         2.251E-10
    V1          -6.162E-09
    V2          -5.937E-09

    TOTAL POWER DISSIPATION   5.46E-08  WATTS


**** 04/06/19 11:54:24 ******* PSpice Lite (March 2016) ******* ID# 10813 ****

 diody zad4


 ****     FOURIER ANALYSIS                 TEMPERATURE =   27.000 DEG C

 ****     CURRENT STEP                     PARAM AMPL =     .22  


******************************************************************************



FOURIER COMPONENTS OF TRANSIENT RESPONSE V(2)



 DC COMPONENT =   7.4163E-05

 HARMONIC   FREQUENCY     FOURIER     NORMALIZED     PHASE     NORMALIZED
    NO         (HZ)      COMPONENT     COMPONENT     (DEG)     PHASE (DEG)

     1    1.0000E+03   2.1288E-01   1.0000E+00   2.8754E-02   0.0000E+00
     2    2.0000E+03   9.6565E-05   4.5362E-04   6.7354E+01   6.7297E+01
     3    3.0000E+03   1.1636E-04   5.4661E-04   7.1499E+01   7.1413E+01
     4    4.0000E+03   1.3068E-04   6.1387E-04   6.6902E+01   6.6787E+01
     5    5.0000E+03   1.3971E-04   6.5629E-04   6.2308E+01   6.2164E+01
     6    6.0000E+03   1.4344E-04   6.7381E-04   5.9635E+01   5.9463E+01
     7    7.0000E+03   1.4496E-04   6.8094E-04   6.0138E+01   5.9937E+01
     8    8.0000E+03   1.5584E-04   7.3206E-04   6.5927E+01   6.5697E+01
     9    9.0000E+03   2.7785E-03   1.3052E-02   7.7983E+01   7.7724E+01


     TOTAL HARMONIC DISTORTION =   1.3158E+00 PERCENT

**** 04/06/19 11:54:24 ******* PSpice Lite (March 2016) ******* ID# 10813 ****

 diody zad4


 ****     INITIAL TRANSIENT SOLUTION       TEMPERATURE =   27.000 DEG C

 ****     CURRENT STEP                     PARAM AMPL =     .23  


******************************************************************************



 NODE   VOLTAGE     NODE   VOLTAGE     NODE   VOLTAGE     NODE   VOLTAGE


(    1)    0.0000  (    2) 225.1E-09  (    3)    5.0000  (    4)   -4.0000  




    VOLTAGE SOURCE CURRENTS
    NAME         CURRENT

    V_IN         2.251E-10
    V1          -6.162E-09
    V2          -5.937E-09

    TOTAL POWER DISSIPATION   5.46E-08  WATTS


**** 04/06/19 11:54:24 ******* PSpice Lite (March 2016) ******* ID# 10813 ****

 diody zad4


 ****     FOURIER ANALYSIS                 TEMPERATURE =   27.000 DEG C

 ****     CURRENT STEP                     PARAM AMPL =     .23  


******************************************************************************



FOURIER COMPONENTS OF TRANSIENT RESPONSE V(2)



 DC COMPONENT =   7.7523E-05

 HARMONIC   FREQUENCY     FOURIER     NORMALIZED     PHASE     NORMALIZED
    NO         (HZ)      COMPONENT     COMPONENT     (DEG)     PHASE (DEG)

     1    1.0000E+03   2.2255E-01   1.0000E+00   2.8754E-02   0.0000E+00
     2    2.0000E+03   1.0095E-04   4.5362E-04   6.7352E+01   6.7294E+01
     3    3.0000E+03   1.2165E-04   5.4661E-04   7.1500E+01   7.1414E+01
     4    4.0000E+03   1.3662E-04   6.1387E-04   6.6903E+01   6.6788E+01
     5    5.0000E+03   1.4606E-04   6.5629E-04   6.2308E+01   6.2164E+01
     6    6.0000E+03   1.4996E-04   6.7381E-04   5.9635E+01   5.9462E+01
     7    7.0000E+03   1.5155E-04   6.8094E-04   6.0138E+01   5.9937E+01
     8    8.0000E+03   1.6292E-04   7.3206E-04   6.5927E+01   6.5697E+01
     9    9.0000E+03   2.9048E-03   1.3052E-02   7.7983E+01   7.7724E+01


     TOTAL HARMONIC DISTORTION =   1.3158E+00 PERCENT

**** 04/06/19 11:54:24 ******* PSpice Lite (March 2016) ******* ID# 10813 ****

 diody zad4


 ****     INITIAL TRANSIENT SOLUTION       TEMPERATURE =   27.000 DEG C

 ****     CURRENT STEP                     PARAM AMPL =     .24  


******************************************************************************



 NODE   VOLTAGE     NODE   VOLTAGE     NODE   VOLTAGE     NODE   VOLTAGE


(    1)    0.0000  (    2) 225.1E-09  (    3)    5.0000  (    4)   -4.0000  




    VOLTAGE SOURCE CURRENTS
    NAME         CURRENT

    V_IN         2.251E-10
    V1          -6.162E-09
    V2          -5.937E-09

    TOTAL POWER DISSIPATION   5.46E-08  WATTS


**** 04/06/19 11:54:24 ******* PSpice Lite (March 2016) ******* ID# 10813 ****

 diody zad4


 ****     FOURIER ANALYSIS                 TEMPERATURE =   27.000 DEG C

 ****     CURRENT STEP                     PARAM AMPL =     .24  


******************************************************************************



FOURIER COMPONENTS OF TRANSIENT RESPONSE V(2)



 DC COMPONENT =   8.0884E-05

 HARMONIC   FREQUENCY     FOURIER     NORMALIZED     PHASE     NORMALIZED
    NO         (HZ)      COMPONENT     COMPONENT     (DEG)     PHASE (DEG)

     1    1.0000E+03   2.3223E-01   1.0000E+00   2.8755E-02   0.0000E+00
     2    2.0000E+03   1.0535E-04   4.5363E-04   6.7352E+01   6.7294E+01
     3    3.0000E+03   1.2694E-04   5.4660E-04   7.1499E+01   7.1413E+01
     4    4.0000E+03   1.4256E-04   6.1386E-04   6.6902E+01   6.6787E+01
     5    5.0000E+03   1.5241E-04   6.5629E-04   6.2307E+01   6.2164E+01
     6    6.0000E+03   1.5648E-04   6.7381E-04   5.9635E+01   5.9463E+01
     7    7.0000E+03   1.5813E-04   6.8094E-04   6.0138E+01   5.9937E+01
     8    8.0000E+03   1.7000E-04   7.3206E-04   6.5927E+01   6.5697E+01
     9    9.0000E+03   3.0311E-03   1.3052E-02   7.7983E+01   7.7724E+01


     TOTAL HARMONIC DISTORTION =   1.3158E+00 PERCENT

**** 04/06/19 11:54:24 ******* PSpice Lite (March 2016) ******* ID# 10813 ****

 diody zad4


 ****     INITIAL TRANSIENT SOLUTION       TEMPERATURE =   27.000 DEG C

 ****     CURRENT STEP                     PARAM AMPL =     .25  


******************************************************************************



 NODE   VOLTAGE     NODE   VOLTAGE     NODE   VOLTAGE     NODE   VOLTAGE


(    1)    0.0000  (    2) 225.1E-09  (    3)    5.0000  (    4)   -4.0000  




    VOLTAGE SOURCE CURRENTS
    NAME         CURRENT

    V_IN         2.251E-10
    V1          -6.162E-09
    V2          -5.937E-09

    TOTAL POWER DISSIPATION   5.46E-08  WATTS


**** 04/06/19 11:54:24 ******* PSpice Lite (March 2016) ******* ID# 10813 ****

 diody zad4


 ****     FOURIER ANALYSIS                 TEMPERATURE =   27.000 DEG C

 ****     CURRENT STEP                     PARAM AMPL =     .25  


******************************************************************************



FOURIER COMPONENTS OF TRANSIENT RESPONSE V(2)



 DC COMPONENT =   8.4247E-05

 HARMONIC   FREQUENCY     FOURIER     NORMALIZED     PHASE     NORMALIZED
    NO         (HZ)      COMPONENT     COMPONENT     (DEG)     PHASE (DEG)

     1    1.0000E+03   2.4190E-01   1.0000E+00   2.8754E-02   0.0000E+00
     2    2.0000E+03   1.0973E-04   4.5361E-04   6.7353E+01   6.7295E+01
     3    3.0000E+03   1.3223E-04   5.4660E-04   7.1499E+01   7.1413E+01
     4    4.0000E+03   1.4850E-04   6.1387E-04   6.6902E+01   6.6787E+01
     5    5.0000E+03   1.5876E-04   6.5629E-04   6.2308E+01   6.2164E+01
     6    6.0000E+03   1.6300E-04   6.7381E-04   5.9635E+01   5.9462E+01
     7    7.0000E+03   1.6472E-04   6.8094E-04   6.0138E+01   5.9937E+01
     8    8.0000E+03   1.7709E-04   7.3206E-04   6.5927E+01   6.5697E+01
     9    9.0000E+03   3.1574E-03   1.3052E-02   7.7983E+01   7.7724E+01


     TOTAL HARMONIC DISTORTION =   1.3158E+00 PERCENT

**** 04/06/19 11:54:24 ******* PSpice Lite (March 2016) ******* ID# 10813 ****

 diody zad4


 ****     INITIAL TRANSIENT SOLUTION       TEMPERATURE =   27.000 DEG C

 ****     CURRENT STEP                     PARAM AMPL =     .26  


******************************************************************************



 NODE   VOLTAGE     NODE   VOLTAGE     NODE   VOLTAGE     NODE   VOLTAGE


(    1)    0.0000  (    2) 225.1E-09  (    3)    5.0000  (    4)   -4.0000  




    VOLTAGE SOURCE CURRENTS
    NAME         CURRENT

    V_IN         2.251E-10
    V1          -6.162E-09
    V2          -5.937E-09

    TOTAL POWER DISSIPATION   5.46E-08  WATTS


**** 04/06/19 11:54:24 ******* PSpice Lite (March 2016) ******* ID# 10813 ****

 diody zad4


 ****     FOURIER ANALYSIS                 TEMPERATURE =   27.000 DEG C

 ****     CURRENT STEP                     PARAM AMPL =     .26  


******************************************************************************



FOURIER COMPONENTS OF TRANSIENT RESPONSE V(2)



 DC COMPONENT =   8.7604E-05

 HARMONIC   FREQUENCY     FOURIER     NORMALIZED     PHASE     NORMALIZED
    NO         (HZ)      COMPONENT     COMPONENT     (DEG)     PHASE (DEG)

     1    1.0000E+03   2.5158E-01   1.0000E+00   2.8754E-02   0.0000E+00
     2    2.0000E+03   1.1412E-04   4.5363E-04   6.7353E+01   6.7295E+01
     3    3.0000E+03   1.3752E-04   5.4661E-04   7.1499E+01   7.1412E+01
     4    4.0000E+03   1.5444E-04   6.1387E-04   6.6902E+01   6.6787E+01
     5    5.0000E+03   1.6511E-04   6.5628E-04   6.2308E+01   6.2164E+01
     6    6.0000E+03   1.6952E-04   6.7381E-04   5.9635E+01   5.9462E+01
     7    7.0000E+03   1.7131E-04   6.8094E-04   6.0138E+01   5.9937E+01
     8    8.0000E+03   1.8417E-04   7.3206E-04   6.5927E+01   6.5697E+01
     9    9.0000E+03   3.2837E-03   1.3052E-02   7.7983E+01   7.7724E+01


     TOTAL HARMONIC DISTORTION =   1.3158E+00 PERCENT

**** 04/06/19 11:54:24 ******* PSpice Lite (March 2016) ******* ID# 10813 ****

 diody zad4


 ****     INITIAL TRANSIENT SOLUTION       TEMPERATURE =   27.000 DEG C

 ****     CURRENT STEP                     PARAM AMPL =     .27  


******************************************************************************



 NODE   VOLTAGE     NODE   VOLTAGE     NODE   VOLTAGE     NODE   VOLTAGE


(    1)    0.0000  (    2) 225.1E-09  (    3)    5.0000  (    4)   -4.0000  




    VOLTAGE SOURCE CURRENTS
    NAME         CURRENT

    V_IN         2.251E-10
    V1          -6.162E-09
    V2          -5.937E-09

    TOTAL POWER DISSIPATION   5.46E-08  WATTS


**** 04/06/19 11:54:24 ******* PSpice Lite (March 2016) ******* ID# 10813 ****

 diody zad4


 ****     FOURIER ANALYSIS                 TEMPERATURE =   27.000 DEG C

 ****     CURRENT STEP                     PARAM AMPL =     .27  


******************************************************************************



FOURIER COMPONENTS OF TRANSIENT RESPONSE V(2)



 DC COMPONENT =   9.0970E-05

 HARMONIC   FREQUENCY     FOURIER     NORMALIZED     PHASE     NORMALIZED
    NO         (HZ)      COMPONENT     COMPONENT     (DEG)     PHASE (DEG)

     1    1.0000E+03   2.6126E-01   1.0000E+00   2.8755E-02   0.0000E+00
     2    2.0000E+03   1.1851E-04   4.5361E-04   6.7350E+01   6.7293E+01
     3    3.0000E+03   1.4280E-04   5.4661E-04   7.1499E+01   7.1413E+01
     4    4.0000E+03   1.6038E-04   6.1387E-04   6.6902E+01   6.6787E+01
     5    5.0000E+03   1.7146E-04   6.5628E-04   6.2308E+01   6.2164E+01
     6    6.0000E+03   1.7604E-04   6.7381E-04   5.9635E+01   5.9462E+01
     7    7.0000E+03   1.7790E-04   6.8094E-04   6.0138E+01   5.9937E+01
     8    8.0000E+03   1.9126E-04   7.3206E-04   6.5927E+01   6.5697E+01
     9    9.0000E+03   3.4100E-03   1.3052E-02   7.7983E+01   7.7724E+01


     TOTAL HARMONIC DISTORTION =   1.3158E+00 PERCENT

**** 04/06/19 11:54:24 ******* PSpice Lite (March 2016) ******* ID# 10813 ****

 diody zad4


 ****     INITIAL TRANSIENT SOLUTION       TEMPERATURE =   27.000 DEG C

 ****     CURRENT STEP                     PARAM AMPL =     .28  


******************************************************************************



 NODE   VOLTAGE     NODE   VOLTAGE     NODE   VOLTAGE     NODE   VOLTAGE


(    1)    0.0000  (    2) 225.1E-09  (    3)    5.0000  (    4)   -4.0000  




    VOLTAGE SOURCE CURRENTS
    NAME         CURRENT

    V_IN         2.251E-10
    V1          -6.162E-09
    V2          -5.937E-09

    TOTAL POWER DISSIPATION   5.46E-08  WATTS


**** 04/06/19 11:54:24 ******* PSpice Lite (March 2016) ******* ID# 10813 ****

 diody zad4


 ****     FOURIER ANALYSIS                 TEMPERATURE =   27.000 DEG C

 ****     CURRENT STEP                     PARAM AMPL =     .28  


******************************************************************************



FOURIER COMPONENTS OF TRANSIENT RESPONSE V(2)



 DC COMPONENT =   9.4327E-05

 HARMONIC   FREQUENCY     FOURIER     NORMALIZED     PHASE     NORMALIZED
    NO         (HZ)      COMPONENT     COMPONENT     (DEG)     PHASE (DEG)

     1    1.0000E+03   2.7093E-01   1.0000E+00   2.8754E-02   0.0000E+00
     2    2.0000E+03   1.2290E-04   4.5363E-04   6.7351E+01   6.7294E+01
     3    3.0000E+03   1.4809E-04   5.4661E-04   7.1500E+01   7.1414E+01
     4    4.0000E+03   1.6632E-04   6.1387E-04   6.6902E+01   6.6787E+01
     5    5.0000E+03   1.7781E-04   6.5628E-04   6.2308E+01   6.2164E+01
     6    6.0000E+03   1.8256E-04   6.7381E-04   5.9635E+01   5.9463E+01
     7    7.0000E+03   1.8449E-04   6.8094E-04   6.0138E+01   5.9937E+01
     8    8.0000E+03   1.9834E-04   7.3206E-04   6.5927E+01   6.5697E+01
     9    9.0000E+03   3.5363E-03   1.3052E-02   7.7983E+01   7.7724E+01


     TOTAL HARMONIC DISTORTION =   1.3158E+00 PERCENT

**** 04/06/19 11:54:24 ******* PSpice Lite (March 2016) ******* ID# 10813 ****

 diody zad4


 ****     INITIAL TRANSIENT SOLUTION       TEMPERATURE =   27.000 DEG C

 ****     CURRENT STEP                     PARAM AMPL =     .29  


******************************************************************************



 NODE   VOLTAGE     NODE   VOLTAGE     NODE   VOLTAGE     NODE   VOLTAGE


(    1)    0.0000  (    2) 225.1E-09  (    3)    5.0000  (    4)   -4.0000  




    VOLTAGE SOURCE CURRENTS
    NAME         CURRENT

    V_IN         2.251E-10
    V1          -6.162E-09
    V2          -5.937E-09

    TOTAL POWER DISSIPATION   5.46E-08  WATTS


**** 04/06/19 11:54:24 ******* PSpice Lite (March 2016) ******* ID# 10813 ****

 diody zad4


 ****     FOURIER ANALYSIS                 TEMPERATURE =   27.000 DEG C

 ****     CURRENT STEP                     PARAM AMPL =     .29  


******************************************************************************



FOURIER COMPONENTS OF TRANSIENT RESPONSE V(2)



 DC COMPONENT =   9.7685E-05

 HARMONIC   FREQUENCY     FOURIER     NORMALIZED     PHASE     NORMALIZED
    NO         (HZ)      COMPONENT     COMPONENT     (DEG)     PHASE (DEG)

     1    1.0000E+03   2.8061E-01   1.0000E+00   2.8755E-02   0.0000E+00
     2    2.0000E+03   1.2729E-04   4.5364E-04   6.7352E+01   6.7295E+01
     3    3.0000E+03   1.5338E-04   5.4661E-04   7.1500E+01   7.1414E+01
     4    4.0000E+03   1.7226E-04   6.1387E-04   6.6903E+01   6.6787E+01
     5    5.0000E+03   1.8416E-04   6.5627E-04   6.2308E+01   6.2164E+01
     6    6.0000E+03   1.8908E-04   6.7381E-04   5.9635E+01   5.9462E+01
     7    7.0000E+03   1.9108E-04   6.8094E-04   6.0138E+01   5.9937E+01
     8    8.0000E+03   2.0542E-04   7.3206E-04   6.5927E+01   6.5697E+01
     9    9.0000E+03   3.6626E-03   1.3052E-02   7.7983E+01   7.7724E+01


     TOTAL HARMONIC DISTORTION =   1.3158E+00 PERCENT

**** 04/06/19 11:54:24 ******* PSpice Lite (March 2016) ******* ID# 10813 ****

 diody zad4


 ****     INITIAL TRANSIENT SOLUTION       TEMPERATURE =   27.000 DEG C

 ****     CURRENT STEP                     PARAM AMPL =     .3   


******************************************************************************



 NODE   VOLTAGE     NODE   VOLTAGE     NODE   VOLTAGE     NODE   VOLTAGE


(    1)    0.0000  (    2) 225.1E-09  (    3)    5.0000  (    4)   -4.0000  




    VOLTAGE SOURCE CURRENTS
    NAME         CURRENT

    V_IN         2.251E-10
    V1          -6.162E-09
    V2          -5.937E-09

    TOTAL POWER DISSIPATION   5.46E-08  WATTS


**** 04/06/19 11:54:24 ******* PSpice Lite (March 2016) ******* ID# 10813 ****

 diody zad4


 ****     FOURIER ANALYSIS                 TEMPERATURE =   27.000 DEG C

 ****     CURRENT STEP                     PARAM AMPL =     .3   


******************************************************************************



FOURIER COMPONENTS OF TRANSIENT RESPONSE V(2)



 DC COMPONENT =   1.0105E-04

 HARMONIC   FREQUENCY     FOURIER     NORMALIZED     PHASE     NORMALIZED
    NO         (HZ)      COMPONENT     COMPONENT     (DEG)     PHASE (DEG)

     1    1.0000E+03   2.9028E-01   1.0000E+00   2.8755E-02   0.0000E+00
     2    2.0000E+03   1.3168E-04   4.5362E-04   6.7352E+01   6.7295E+01
     3    3.0000E+03   1.5867E-04   5.4661E-04   7.1499E+01   7.1412E+01
     4    4.0000E+03   1.7820E-04   6.1387E-04   6.6901E+01   6.6786E+01
     5    5.0000E+03   1.9051E-04   6.5627E-04   6.2308E+01   6.2164E+01
     6    6.0000E+03   1.9560E-04   6.7381E-04   5.9635E+01   5.9463E+01
     7    7.0000E+03   1.9767E-04   6.8094E-04   6.0138E+01   5.9937E+01
     8    8.0000E+03   2.1251E-04   7.3206E-04   6.5927E+01   6.5697E+01
     9    9.0000E+03   3.7889E-03   1.3052E-02   7.7983E+01   7.7724E+01


     TOTAL HARMONIC DISTORTION =   1.3158E+00 PERCENT

**** 04/06/19 11:54:24 ******* PSpice Lite (March 2016) ******* ID# 10813 ****

 diody zad4


 ****     INITIAL TRANSIENT SOLUTION       TEMPERATURE =   27.000 DEG C

 ****     CURRENT STEP                     PARAM AMPL =     .31  


******************************************************************************



 NODE   VOLTAGE     NODE   VOLTAGE     NODE   VOLTAGE     NODE   VOLTAGE


(    1)    0.0000  (    2) 225.1E-09  (    3)    5.0000  (    4)   -4.0000  




    VOLTAGE SOURCE CURRENTS
    NAME         CURRENT

    V_IN         2.251E-10
    V1          -6.162E-09
    V2          -5.937E-09

    TOTAL POWER DISSIPATION   5.46E-08  WATTS


**** 04/06/19 11:54:24 ******* PSpice Lite (March 2016) ******* ID# 10813 ****

 diody zad4


 ****     FOURIER ANALYSIS                 TEMPERATURE =   27.000 DEG C

 ****     CURRENT STEP                     PARAM AMPL =     .31  


******************************************************************************



FOURIER COMPONENTS OF TRANSIENT RESPONSE V(2)



 DC COMPONENT =   1.0441E-04

 HARMONIC   FREQUENCY     FOURIER     NORMALIZED     PHASE     NORMALIZED
    NO         (HZ)      COMPONENT     COMPONENT     (DEG)     PHASE (DEG)

     1    1.0000E+03   2.9996E-01   1.0000E+00   2.8754E-02   0.0000E+00
     2    2.0000E+03   1.3607E-04   4.5361E-04   6.7351E+01   6.7294E+01
     3    3.0000E+03   1.6396E-04   5.4661E-04   7.1500E+01   7.1414E+01
     4    4.0000E+03   1.8414E-04   6.1387E-04   6.6902E+01   6.6787E+01
     5    5.0000E+03   1.9686E-04   6.5628E-04   6.2308E+01   6.2164E+01
     6    6.0000E+03   2.0212E-04   6.7381E-04   5.9635E+01   5.9462E+01
     7    7.0000E+03   2.0426E-04   6.8094E-04   6.0138E+01   5.9937E+01
     8    8.0000E+03   2.1959E-04   7.3206E-04   6.5927E+01   6.5697E+01
     9    9.0000E+03   3.9152E-03   1.3052E-02   7.7983E+01   7.7724E+01


     TOTAL HARMONIC DISTORTION =   1.3158E+00 PERCENT

**** 04/06/19 11:54:24 ******* PSpice Lite (March 2016) ******* ID# 10813 ****

 diody zad4


 ****     INITIAL TRANSIENT SOLUTION       TEMPERATURE =   27.000 DEG C

 ****     CURRENT STEP                     PARAM AMPL =     .32  


******************************************************************************



 NODE   VOLTAGE     NODE   VOLTAGE     NODE   VOLTAGE     NODE   VOLTAGE


(    1)    0.0000  (    2) 225.1E-09  (    3)    5.0000  (    4)   -4.0000  




    VOLTAGE SOURCE CURRENTS
    NAME         CURRENT

    V_IN         2.251E-10
    V1          -6.162E-09
    V2          -5.937E-09

    TOTAL POWER DISSIPATION   5.46E-08  WATTS


**** 04/06/19 11:54:24 ******* PSpice Lite (March 2016) ******* ID# 10813 ****

 diody zad4


 ****     FOURIER ANALYSIS                 TEMPERATURE =   27.000 DEG C

 ****     CURRENT STEP                     PARAM AMPL =     .32  


******************************************************************************



FOURIER COMPONENTS OF TRANSIENT RESPONSE V(2)



 DC COMPONENT =   1.0777E-04

 HARMONIC   FREQUENCY     FOURIER     NORMALIZED     PHASE     NORMALIZED
    NO         (HZ)      COMPONENT     COMPONENT     (DEG)     PHASE (DEG)

     1    1.0000E+03   3.0964E-01   1.0000E+00   2.8754E-02   0.0000E+00
     2    2.0000E+03   1.4046E-04   4.5362E-04   6.7350E+01   6.7293E+01
     3    3.0000E+03   1.6925E-04   5.4661E-04   7.1499E+01   7.1413E+01
     4    4.0000E+03   1.9008E-04   6.1387E-04   6.6903E+01   6.6788E+01
     5    5.0000E+03   2.0321E-04   6.5628E-04   6.2308E+01   6.2164E+01
     6    6.0000E+03   2.0864E-04   6.7381E-04   5.9635E+01   5.9462E+01
     7    7.0000E+03   2.1085E-04   6.8094E-04   6.0138E+01   5.9937E+01
     8    8.0000E+03   2.2667E-04   7.3206E-04   6.5927E+01   6.5697E+01
     9    9.0000E+03   4.0415E-03   1.3052E-02   7.7983E+01   7.7724E+01


     TOTAL HARMONIC DISTORTION =   1.3158E+00 PERCENT

**** 04/06/19 11:54:24 ******* PSpice Lite (March 2016) ******* ID# 10813 ****

 diody zad4


 ****     INITIAL TRANSIENT SOLUTION       TEMPERATURE =   27.000 DEG C

 ****     CURRENT STEP                     PARAM AMPL =     .33  


******************************************************************************



 NODE   VOLTAGE     NODE   VOLTAGE     NODE   VOLTAGE     NODE   VOLTAGE


(    1)    0.0000  (    2) 225.1E-09  (    3)    5.0000  (    4)   -4.0000  




    VOLTAGE SOURCE CURRENTS
    NAME         CURRENT

    V_IN         2.251E-10
    V1          -6.162E-09
    V2          -5.937E-09

    TOTAL POWER DISSIPATION   5.46E-08  WATTS


**** 04/06/19 11:54:24 ******* PSpice Lite (March 2016) ******* ID# 10813 ****

 diody zad4


 ****     FOURIER ANALYSIS                 TEMPERATURE =   27.000 DEG C

 ****     CURRENT STEP                     PARAM AMPL =     .33  


******************************************************************************



FOURIER COMPONENTS OF TRANSIENT RESPONSE V(2)



 DC COMPONENT =   1.1113E-04

 HARMONIC   FREQUENCY     FOURIER     NORMALIZED     PHASE     NORMALIZED
    NO         (HZ)      COMPONENT     COMPONENT     (DEG)     PHASE (DEG)

     1    1.0000E+03   3.1931E-01   1.0000E+00   2.8753E-02   0.0000E+00
     2    2.0000E+03   1.4485E-04   4.5364E-04   6.7352E+01   6.7294E+01
     3    3.0000E+03   1.7454E-04   5.4662E-04   7.1500E+01   7.1414E+01
     4    4.0000E+03   1.9602E-04   6.1387E-04   6.6902E+01   6.6787E+01
     5    5.0000E+03   2.0956E-04   6.5628E-04   6.2308E+01   6.2164E+01
     6    6.0000E+03   2.1516E-04   6.7381E-04   5.9635E+01   5.9462E+01
     7    7.0000E+03   2.1743E-04   6.8094E-04   6.0138E+01   5.9937E+01
     8    8.0000E+03   2.3376E-04   7.3206E-04   6.5927E+01   6.5697E+01
     9    9.0000E+03   4.1678E-03   1.3052E-02   7.7983E+01   7.7724E+01


     TOTAL HARMONIC DISTORTION =   1.3158E+00 PERCENT

**** 04/06/19 11:54:24 ******* PSpice Lite (March 2016) ******* ID# 10813 ****

 diody zad4


 ****     INITIAL TRANSIENT SOLUTION       TEMPERATURE =   27.000 DEG C

 ****     CURRENT STEP                     PARAM AMPL =     .34  


******************************************************************************



 NODE   VOLTAGE     NODE   VOLTAGE     NODE   VOLTAGE     NODE   VOLTAGE


(    1)    0.0000  (    2) 225.1E-09  (    3)    5.0000  (    4)   -4.0000  




    VOLTAGE SOURCE CURRENTS
    NAME         CURRENT

    V_IN         2.251E-10
    V1          -6.162E-09
    V2          -5.937E-09

    TOTAL POWER DISSIPATION   5.46E-08  WATTS


**** 04/06/19 11:54:24 ******* PSpice Lite (March 2016) ******* ID# 10813 ****

 diody zad4


 ****     FOURIER ANALYSIS                 TEMPERATURE =   27.000 DEG C

 ****     CURRENT STEP                     PARAM AMPL =     .34  


******************************************************************************



FOURIER COMPONENTS OF TRANSIENT RESPONSE V(2)



 DC COMPONENT =   1.1449E-04

 HARMONIC   FREQUENCY     FOURIER     NORMALIZED     PHASE     NORMALIZED
    NO         (HZ)      COMPONENT     COMPONENT     (DEG)     PHASE (DEG)

     1    1.0000E+03   3.2899E-01   1.0000E+00   2.8755E-02   0.0000E+00
     2    2.0000E+03   1.4924E-04   4.5362E-04   6.7352E+01   6.7294E+01
     3    3.0000E+03   1.7983E-04   5.4661E-04   7.1499E+01   7.1413E+01
     4    4.0000E+03   2.0196E-04   6.1387E-04   6.6901E+01   6.6786E+01
     5    5.0000E+03   2.1591E-04   6.5627E-04   6.2308E+01   6.2164E+01
     6    6.0000E+03   2.2168E-04   6.7382E-04   5.9635E+01   5.9463E+01
     7    7.0000E+03   2.2402E-04   6.8094E-04   6.0138E+01   5.9937E+01
     8    8.0000E+03   2.4084E-04   7.3206E-04   6.5927E+01   6.5697E+01
     9    9.0000E+03   4.2941E-03   1.3052E-02   7.7983E+01   7.7724E+01


     TOTAL HARMONIC DISTORTION =   1.3158E+00 PERCENT

**** 04/06/19 11:54:24 ******* PSpice Lite (March 2016) ******* ID# 10813 ****

 diody zad4


 ****     INITIAL TRANSIENT SOLUTION       TEMPERATURE =   27.000 DEG C

 ****     CURRENT STEP                     PARAM AMPL =     .35  


******************************************************************************



 NODE   VOLTAGE     NODE   VOLTAGE     NODE   VOLTAGE     NODE   VOLTAGE


(    1)    0.0000  (    2) 225.1E-09  (    3)    5.0000  (    4)   -4.0000  




    VOLTAGE SOURCE CURRENTS
    NAME         CURRENT

    V_IN         2.251E-10
    V1          -6.162E-09
    V2          -5.937E-09

    TOTAL POWER DISSIPATION   5.46E-08  WATTS


**** 04/06/19 11:54:24 ******* PSpice Lite (March 2016) ******* ID# 10813 ****

 diody zad4


 ****     FOURIER ANALYSIS                 TEMPERATURE =   27.000 DEG C

 ****     CURRENT STEP                     PARAM AMPL =     .35  


******************************************************************************



FOURIER COMPONENTS OF TRANSIENT RESPONSE V(2)



 DC COMPONENT =   1.1785E-04

 HARMONIC   FREQUENCY     FOURIER     NORMALIZED     PHASE     NORMALIZED
    NO         (HZ)      COMPONENT     COMPONENT     (DEG)     PHASE (DEG)

     1    1.0000E+03   3.3867E-01   1.0000E+00   2.8754E-02   0.0000E+00
     2    2.0000E+03   1.5363E-04   4.5364E-04   6.7349E+01   6.7292E+01
     3    3.0000E+03   1.8512E-04   5.4661E-04   7.1499E+01   7.1412E+01
     4    4.0000E+03   2.0789E-04   6.1386E-04   6.6902E+01   6.6787E+01
     5    5.0000E+03   2.2226E-04   6.5627E-04   6.2308E+01   6.2164E+01
     6    6.0000E+03   2.2820E-04   6.7381E-04   5.9635E+01   5.9463E+01
     7    7.0000E+03   2.3061E-04   6.8094E-04   6.0138E+01   5.9937E+01
     8    8.0000E+03   2.4792E-04   7.3206E-04   6.5927E+01   6.5697E+01
     9    9.0000E+03   4.4204E-03   1.3052E-02   7.7983E+01   7.7724E+01


     TOTAL HARMONIC DISTORTION =   1.3158E+00 PERCENT

**** 04/06/19 11:54:24 ******* PSpice Lite (March 2016) ******* ID# 10813 ****

 diody zad4


 ****     INITIAL TRANSIENT SOLUTION       TEMPERATURE =   27.000 DEG C

 ****     CURRENT STEP                     PARAM AMPL =     .36  


******************************************************************************



 NODE   VOLTAGE     NODE   VOLTAGE     NODE   VOLTAGE     NODE   VOLTAGE


(    1)    0.0000  (    2) 225.1E-09  (    3)    5.0000  (    4)   -4.0000  




    VOLTAGE SOURCE CURRENTS
    NAME         CURRENT

    V_IN         2.251E-10
    V1          -6.162E-09
    V2          -5.937E-09

    TOTAL POWER DISSIPATION   5.46E-08  WATTS


**** 04/06/19 11:54:24 ******* PSpice Lite (March 2016) ******* ID# 10813 ****

 diody zad4


 ****     FOURIER ANALYSIS                 TEMPERATURE =   27.000 DEG C

 ****     CURRENT STEP                     PARAM AMPL =     .36  


******************************************************************************



FOURIER COMPONENTS OF TRANSIENT RESPONSE V(2)



 DC COMPONENT =   1.2122E-04

 HARMONIC   FREQUENCY     FOURIER     NORMALIZED     PHASE     NORMALIZED
    NO         (HZ)      COMPONENT     COMPONENT     (DEG)     PHASE (DEG)

     1    1.0000E+03   3.4834E-01   1.0000E+00   2.8754E-02   0.0000E+00
     2    2.0000E+03   1.5802E-04   4.5363E-04   6.7348E+01   6.7291E+01
     3    3.0000E+03   1.9041E-04   5.4661E-04   7.1500E+01   7.1414E+01
     4    4.0000E+03   2.1384E-04   6.1387E-04   6.6902E+01   6.6787E+01
     5    5.0000E+03   2.2861E-04   6.5627E-04   6.2308E+01   6.2164E+01
     6    6.0000E+03   2.3472E-04   6.7381E-04   5.9635E+01   5.9462E+01
     7    7.0000E+03   2.3720E-04   6.8094E-04   6.0138E+01   5.9937E+01
     8    8.0000E+03   2.5501E-04   7.3206E-04   6.5927E+01   6.5697E+01
     9    9.0000E+03   4.5467E-03   1.3052E-02   7.7983E+01   7.7724E+01


     TOTAL HARMONIC DISTORTION =   1.3158E+00 PERCENT

**** 04/06/19 11:54:24 ******* PSpice Lite (March 2016) ******* ID# 10813 ****

 diody zad4


 ****     INITIAL TRANSIENT SOLUTION       TEMPERATURE =   27.000 DEG C

 ****     CURRENT STEP                     PARAM AMPL =     .37  


******************************************************************************



 NODE   VOLTAGE     NODE   VOLTAGE     NODE   VOLTAGE     NODE   VOLTAGE


(    1)    0.0000  (    2) 225.1E-09  (    3)    5.0000  (    4)   -4.0000  




    VOLTAGE SOURCE CURRENTS
    NAME         CURRENT

    V_IN         2.251E-10
    V1          -6.162E-09
    V2          -5.937E-09

    TOTAL POWER DISSIPATION   5.46E-08  WATTS


**** 04/06/19 11:54:24 ******* PSpice Lite (March 2016) ******* ID# 10813 ****

 diody zad4


 ****     FOURIER ANALYSIS                 TEMPERATURE =   27.000 DEG C

 ****     CURRENT STEP                     PARAM AMPL =     .37  


******************************************************************************



FOURIER COMPONENTS OF TRANSIENT RESPONSE V(2)



 DC COMPONENT =   1.2458E-04

 HARMONIC   FREQUENCY     FOURIER     NORMALIZED     PHASE     NORMALIZED
    NO         (HZ)      COMPONENT     COMPONENT     (DEG)     PHASE (DEG)

     1    1.0000E+03   3.5802E-01   1.0000E+00   2.8755E-02   0.0000E+00
     2    2.0000E+03   1.6240E-04   4.5361E-04   6.7352E+01   6.7294E+01
     3    3.0000E+03   1.9570E-04   5.4661E-04   7.1499E+01   7.1412E+01
     4    4.0000E+03   2.1978E-04   6.1387E-04   6.6902E+01   6.6787E+01
     5    5.0000E+03   2.3496E-04   6.5627E-04   6.2308E+01   6.2164E+01
     6    6.0000E+03   2.4124E-04   6.7381E-04   5.9635E+01   5.9462E+01
     7    7.0000E+03   2.4379E-04   6.8094E-04   6.0138E+01   5.9937E+01
     8    8.0000E+03   2.6209E-04   7.3206E-04   6.5927E+01   6.5697E+01
     9    9.0000E+03   4.6730E-03   1.3052E-02   7.7983E+01   7.7724E+01


     TOTAL HARMONIC DISTORTION =   1.3158E+00 PERCENT

**** 04/06/19 11:54:24 ******* PSpice Lite (March 2016) ******* ID# 10813 ****

 diody zad4


 ****     INITIAL TRANSIENT SOLUTION       TEMPERATURE =   27.000 DEG C

 ****     CURRENT STEP                     PARAM AMPL =     .38  


******************************************************************************



 NODE   VOLTAGE     NODE   VOLTAGE     NODE   VOLTAGE     NODE   VOLTAGE


(    1)    0.0000  (    2) 225.1E-09  (    3)    5.0000  (    4)   -4.0000  




    VOLTAGE SOURCE CURRENTS
    NAME         CURRENT

    V_IN         2.251E-10
    V1          -6.162E-09
    V2          -5.937E-09

    TOTAL POWER DISSIPATION   5.46E-08  WATTS


**** 04/06/19 11:54:24 ******* PSpice Lite (March 2016) ******* ID# 10813 ****

 diody zad4


 ****     FOURIER ANALYSIS                 TEMPERATURE =   27.000 DEG C

 ****     CURRENT STEP                     PARAM AMPL =     .38  


******************************************************************************



FOURIER COMPONENTS OF TRANSIENT RESPONSE V(2)



 DC COMPONENT =   1.2793E-04

 HARMONIC   FREQUENCY     FOURIER     NORMALIZED     PHASE     NORMALIZED
    NO         (HZ)      COMPONENT     COMPONENT     (DEG)     PHASE (DEG)

     1    1.0000E+03   3.6769E-01   1.0000E+00   2.8755E-02   0.0000E+00
     2    2.0000E+03   1.6680E-04   4.5363E-04   6.7352E+01   6.7295E+01
     3    3.0000E+03   2.0098E-04   5.4661E-04   7.1499E+01   7.1413E+01
     4    4.0000E+03   2.2572E-04   6.1387E-04   6.6902E+01   6.6787E+01
     5    5.0000E+03   2.4131E-04   6.5628E-04   6.2308E+01   6.2164E+01
     6    6.0000E+03   2.4776E-04   6.7381E-04   5.9635E+01   5.9462E+01
     7    7.0000E+03   2.5038E-04   6.8094E-04   6.0138E+01   5.9937E+01
     8    8.0000E+03   2.6917E-04   7.3206E-04   6.5927E+01   6.5697E+01
     9    9.0000E+03   4.7993E-03   1.3052E-02   7.7983E+01   7.7724E+01


     TOTAL HARMONIC DISTORTION =   1.3158E+00 PERCENT

**** 04/06/19 11:54:24 ******* PSpice Lite (March 2016) ******* ID# 10813 ****

 diody zad4


 ****     INITIAL TRANSIENT SOLUTION       TEMPERATURE =   27.000 DEG C

 ****     CURRENT STEP                     PARAM AMPL =     .39  


******************************************************************************



 NODE   VOLTAGE     NODE   VOLTAGE     NODE   VOLTAGE     NODE   VOLTAGE


(    1)    0.0000  (    2) 225.1E-09  (    3)    5.0000  (    4)   -4.0000  




    VOLTAGE SOURCE CURRENTS
    NAME         CURRENT

    V_IN         2.251E-10
    V1          -6.162E-09
    V2          -5.937E-09

    TOTAL POWER DISSIPATION   5.46E-08  WATTS


**** 04/06/19 11:54:24 ******* PSpice Lite (March 2016) ******* ID# 10813 ****

 diody zad4


 ****     FOURIER ANALYSIS                 TEMPERATURE =   27.000 DEG C

 ****     CURRENT STEP                     PARAM AMPL =     .39  


******************************************************************************



FOURIER COMPONENTS OF TRANSIENT RESPONSE V(2)



 DC COMPONENT =   1.3129E-04

 HARMONIC   FREQUENCY     FOURIER     NORMALIZED     PHASE     NORMALIZED
    NO         (HZ)      COMPONENT     COMPONENT     (DEG)     PHASE (DEG)

     1    1.0000E+03   3.7737E-01   1.0000E+00   2.8754E-02   0.0000E+00
     2    2.0000E+03   1.7119E-04   4.5363E-04   6.7352E+01   6.7295E+01
     3    3.0000E+03   2.0628E-04   5.4661E-04   7.1499E+01   7.1413E+01
     4    4.0000E+03   2.3166E-04   6.1387E-04   6.6902E+01   6.6787E+01
     5    5.0000E+03   2.4766E-04   6.5627E-04   6.2308E+01   6.2164E+01
     6    6.0000E+03   2.5428E-04   6.7381E-04   5.9635E+01   5.9462E+01
     7    7.0000E+03   2.5697E-04   6.8094E-04   6.0138E+01   5.9937E+01
     8    8.0000E+03   2.7626E-04   7.3206E-04   6.5927E+01   6.5697E+01
     9    9.0000E+03   4.9256E-03   1.3052E-02   7.7983E+01   7.7724E+01


     TOTAL HARMONIC DISTORTION =   1.3158E+00 PERCENT

**** 04/06/19 11:54:24 ******* PSpice Lite (March 2016) ******* ID# 10813 ****

 diody zad4


 ****     INITIAL TRANSIENT SOLUTION       TEMPERATURE =   27.000 DEG C

 ****     CURRENT STEP                     PARAM AMPL =     .4   


******************************************************************************



 NODE   VOLTAGE     NODE   VOLTAGE     NODE   VOLTAGE     NODE   VOLTAGE


(    1)    0.0000  (    2) 225.1E-09  (    3)    5.0000  (    4)   -4.0000  




    VOLTAGE SOURCE CURRENTS
    NAME         CURRENT

    V_IN         2.251E-10
    V1          -6.162E-09
    V2          -5.937E-09

    TOTAL POWER DISSIPATION   5.46E-08  WATTS


**** 04/06/19 11:54:24 ******* PSpice Lite (March 2016) ******* ID# 10813 ****

 diody zad4


 ****     FOURIER ANALYSIS                 TEMPERATURE =   27.000 DEG C

 ****     CURRENT STEP                     PARAM AMPL =     .4   


******************************************************************************



FOURIER COMPONENTS OF TRANSIENT RESPONSE V(2)



 DC COMPONENT =   1.3466E-04

 HARMONIC   FREQUENCY     FOURIER     NORMALIZED     PHASE     NORMALIZED
    NO         (HZ)      COMPONENT     COMPONENT     (DEG)     PHASE (DEG)

     1    1.0000E+03   3.8705E-01   1.0000E+00   2.8754E-02   0.0000E+00
     2    2.0000E+03   1.7557E-04   4.5362E-04   6.7350E+01   6.7293E+01
     3    3.0000E+03   2.1157E-04   5.4662E-04   7.1501E+01   7.1414E+01
     4    4.0000E+03   2.3760E-04   6.1388E-04   6.6903E+01   6.6788E+01
     5    5.0000E+03   2.5401E-04   6.5627E-04   6.2308E+01   6.2164E+01
     6    6.0000E+03   2.6080E-04   6.7381E-04   5.9635E+01   5.9462E+01
     7    7.0000E+03   2.6356E-04   6.8094E-04   6.0138E+01   5.9937E+01
     8    8.0000E+03   2.8334E-04   7.3206E-04   6.5927E+01   6.5697E+01
     9    9.0000E+03   5.0519E-03   1.3052E-02   7.7983E+01   7.7724E+01


     TOTAL HARMONIC DISTORTION =   1.3158E+00 PERCENT

**** 04/06/19 11:54:24 ******* PSpice Lite (March 2016) ******* ID# 10813 ****

 diody zad4


 ****     INITIAL TRANSIENT SOLUTION       TEMPERATURE =   27.000 DEG C

 ****     CURRENT STEP                     PARAM AMPL =     .41  


******************************************************************************



 NODE   VOLTAGE     NODE   VOLTAGE     NODE   VOLTAGE     NODE   VOLTAGE


(    1)    0.0000  (    2) 225.1E-09  (    3)    5.0000  (    4)   -4.0000  




    VOLTAGE SOURCE CURRENTS
    NAME         CURRENT

    V_IN         2.251E-10
    V1          -6.162E-09
    V2          -5.937E-09

    TOTAL POWER DISSIPATION   5.46E-08  WATTS


**** 04/06/19 11:54:24 ******* PSpice Lite (March 2016) ******* ID# 10813 ****

 diody zad4


 ****     FOURIER ANALYSIS                 TEMPERATURE =   27.000 DEG C

 ****     CURRENT STEP                     PARAM AMPL =     .41  


******************************************************************************



FOURIER COMPONENTS OF TRANSIENT RESPONSE V(2)



 DC COMPONENT =   1.3802E-04

 HARMONIC   FREQUENCY     FOURIER     NORMALIZED     PHASE     NORMALIZED
    NO         (HZ)      COMPONENT     COMPONENT     (DEG)     PHASE (DEG)

     1    1.0000E+03   3.9672E-01   1.0000E+00   2.8754E-02   0.0000E+00
     2    2.0000E+03   1.7996E-04   4.5362E-04   6.7350E+01   6.7293E+01
     3    3.0000E+03   2.1685E-04   5.4661E-04   7.1500E+01   7.1413E+01
     4    4.0000E+03   2.4354E-04   6.1388E-04   6.6903E+01   6.6788E+01
     5    5.0000E+03   2.6036E-04   6.5628E-04   6.2308E+01   6.2164E+01
     6    6.0000E+03   2.6732E-04   6.7381E-04   5.9635E+01   5.9462E+01
     7    7.0000E+03   2.7015E-04   6.8094E-04   6.0138E+01   5.9937E+01
     8    8.0000E+03   2.9042E-04   7.3206E-04   6.5927E+01   6.5697E+01
     9    9.0000E+03   5.1782E-03   1.3052E-02   7.7983E+01   7.7724E+01


     TOTAL HARMONIC DISTORTION =   1.3158E+00 PERCENT

**** 04/06/19 11:54:24 ******* PSpice Lite (March 2016) ******* ID# 10813 ****

 diody zad4


 ****     INITIAL TRANSIENT SOLUTION       TEMPERATURE =   27.000 DEG C

 ****     CURRENT STEP                     PARAM AMPL =     .42  


******************************************************************************



 NODE   VOLTAGE     NODE   VOLTAGE     NODE   VOLTAGE     NODE   VOLTAGE


(    1)    0.0000  (    2) 225.1E-09  (    3)    5.0000  (    4)   -4.0000  




    VOLTAGE SOURCE CURRENTS
    NAME         CURRENT

    V_IN         2.251E-10
    V1          -6.162E-09
    V2          -5.937E-09

    TOTAL POWER DISSIPATION   5.46E-08  WATTS


**** 04/06/19 11:54:24 ******* PSpice Lite (March 2016) ******* ID# 10813 ****

 diody zad4


 ****     FOURIER ANALYSIS                 TEMPERATURE =   27.000 DEG C

 ****     CURRENT STEP                     PARAM AMPL =     .42  


******************************************************************************



FOURIER COMPONENTS OF TRANSIENT RESPONSE V(2)



 DC COMPONENT =   1.4138E-04

 HARMONIC   FREQUENCY     FOURIER     NORMALIZED     PHASE     NORMALIZED
    NO         (HZ)      COMPONENT     COMPONENT     (DEG)     PHASE (DEG)

     1    1.0000E+03   4.0640E-01   1.0000E+00   2.8754E-02   0.0000E+00
     2    2.0000E+03   1.8436E-04   4.5364E-04   6.7350E+01   6.7293E+01
     3    3.0000E+03   2.2214E-04   5.4661E-04   7.1499E+01   7.1413E+01
     4    4.0000E+03   2.4947E-04   6.1387E-04   6.6902E+01   6.6787E+01
     5    5.0000E+03   2.6671E-04   6.5628E-04   6.2308E+01   6.2164E+01
     6    6.0000E+03   2.7384E-04   6.7381E-04   5.9635E+01   5.9463E+01
     7    7.0000E+03   2.7673E-04   6.8094E-04   6.0138E+01   5.9937E+01
     8    8.0000E+03   2.9751E-04   7.3206E-04   6.5927E+01   6.5697E+01
     9    9.0000E+03   5.3045E-03   1.3052E-02   7.7983E+01   7.7724E+01


     TOTAL HARMONIC DISTORTION =   1.3158E+00 PERCENT

**** 04/06/19 11:54:24 ******* PSpice Lite (March 2016) ******* ID# 10813 ****

 diody zad4


 ****     INITIAL TRANSIENT SOLUTION       TEMPERATURE =   27.000 DEG C

 ****     CURRENT STEP                     PARAM AMPL =     .43  


******************************************************************************



 NODE   VOLTAGE     NODE   VOLTAGE     NODE   VOLTAGE     NODE   VOLTAGE


(    1)    0.0000  (    2) 225.1E-09  (    3)    5.0000  (    4)   -4.0000  




    VOLTAGE SOURCE CURRENTS
    NAME         CURRENT

    V_IN         2.251E-10
    V1          -6.162E-09
    V2          -5.937E-09

    TOTAL POWER DISSIPATION   5.46E-08  WATTS


**** 04/06/19 11:54:24 ******* PSpice Lite (March 2016) ******* ID# 10813 ****

 diody zad4


 ****     FOURIER ANALYSIS                 TEMPERATURE =   27.000 DEG C

 ****     CURRENT STEP                     PARAM AMPL =     .43  


******************************************************************************



FOURIER COMPONENTS OF TRANSIENT RESPONSE V(2)



 DC COMPONENT =   1.4474E-04

 HARMONIC   FREQUENCY     FOURIER     NORMALIZED     PHASE     NORMALIZED
    NO         (HZ)      COMPONENT     COMPONENT     (DEG)     PHASE (DEG)

     1    1.0000E+03   4.1608E-01   1.0000E+00   2.8754E-02   0.0000E+00
     2    2.0000E+03   1.8875E-04   4.5363E-04   6.7350E+01   6.7293E+01
     3    3.0000E+03   2.2743E-04   5.4662E-04   7.1500E+01   7.1413E+01
     4    4.0000E+03   2.5541E-04   6.1386E-04   6.6902E+01   6.6787E+01
     5    5.0000E+03   2.7306E-04   6.5627E-04   6.2308E+01   6.2164E+01
     6    6.0000E+03   2.8036E-04   6.7381E-04   5.9635E+01   5.9463E+01
     7    7.0000E+03   2.8332E-04   6.8094E-04   6.0138E+01   5.9937E+01
     8    8.0000E+03   3.0459E-04   7.3206E-04   6.5927E+01   6.5697E+01
     9    9.0000E+03   5.4308E-03   1.3052E-02   7.7983E+01   7.7724E+01


     TOTAL HARMONIC DISTORTION =   1.3158E+00 PERCENT

**** 04/06/19 11:54:24 ******* PSpice Lite (March 2016) ******* ID# 10813 ****

 diody zad4


 ****     INITIAL TRANSIENT SOLUTION       TEMPERATURE =   27.000 DEG C

 ****     CURRENT STEP                     PARAM AMPL =     .44  


******************************************************************************



 NODE   VOLTAGE     NODE   VOLTAGE     NODE   VOLTAGE     NODE   VOLTAGE


(    1)    0.0000  (    2) 225.1E-09  (    3)    5.0000  (    4)   -4.0000  




    VOLTAGE SOURCE CURRENTS
    NAME         CURRENT

    V_IN         2.251E-10
    V1          -6.162E-09
    V2          -5.937E-09

    TOTAL POWER DISSIPATION   5.46E-08  WATTS


**** 04/06/19 11:54:24 ******* PSpice Lite (March 2016) ******* ID# 10813 ****

 diody zad4


 ****     FOURIER ANALYSIS                 TEMPERATURE =   27.000 DEG C

 ****     CURRENT STEP                     PARAM AMPL =     .44  


******************************************************************************



FOURIER COMPONENTS OF TRANSIENT RESPONSE V(2)



 DC COMPONENT =   1.4810E-04

 HARMONIC   FREQUENCY     FOURIER     NORMALIZED     PHASE     NORMALIZED
    NO         (HZ)      COMPONENT     COMPONENT     (DEG)     PHASE (DEG)

     1    1.0000E+03   4.2575E-01   1.0000E+00   2.8754E-02   0.0000E+00
     2    2.0000E+03   1.9313E-04   4.5363E-04   6.7349E+01   6.7292E+01
     3    3.0000E+03   2.3272E-04   5.4660E-04   7.1499E+01   7.1413E+01
     4    4.0000E+03   2.6136E-04   6.1387E-04   6.6902E+01   6.6787E+01
     5    5.0000E+03   2.7941E-04   6.5628E-04   6.2308E+01   6.2164E+01
     6    6.0000E+03   2.8688E-04   6.7381E-04   5.9635E+01   5.9462E+01
     7    7.0000E+03   2.8991E-04   6.8094E-04   6.0138E+01   5.9937E+01
     8    8.0000E+03   3.1168E-04   7.3206E-04   6.5927E+01   6.5697E+01
     9    9.0000E+03   5.5571E-03   1.3052E-02   7.7983E+01   7.7724E+01


     TOTAL HARMONIC DISTORTION =   1.3158E+00 PERCENT

**** 04/06/19 11:54:24 ******* PSpice Lite (March 2016) ******* ID# 10813 ****

 diody zad4


 ****     INITIAL TRANSIENT SOLUTION       TEMPERATURE =   27.000 DEG C

 ****     CURRENT STEP                     PARAM AMPL =     .45  


******************************************************************************



 NODE   VOLTAGE     NODE   VOLTAGE     NODE   VOLTAGE     NODE   VOLTAGE


(    1)    0.0000  (    2) 225.1E-09  (    3)    5.0000  (    4)   -4.0000  




    VOLTAGE SOURCE CURRENTS
    NAME         CURRENT

    V_IN         2.251E-10
    V1          -6.162E-09
    V2          -5.937E-09

    TOTAL POWER DISSIPATION   5.46E-08  WATTS


**** 04/06/19 11:54:24 ******* PSpice Lite (March 2016) ******* ID# 10813 ****

 diody zad4


 ****     FOURIER ANALYSIS                 TEMPERATURE =   27.000 DEG C

 ****     CURRENT STEP                     PARAM AMPL =     .45  


******************************************************************************



FOURIER COMPONENTS OF TRANSIENT RESPONSE V(2)



 DC COMPONENT =   1.5146E-04

 HARMONIC   FREQUENCY     FOURIER     NORMALIZED     PHASE     NORMALIZED
    NO         (HZ)      COMPONENT     COMPONENT     (DEG)     PHASE (DEG)

     1    1.0000E+03   4.3543E-01   1.0000E+00   2.8754E-02   0.0000E+00
     2    2.0000E+03   1.9752E-04   4.5363E-04   6.7349E+01   6.7291E+01
     3    3.0000E+03   2.3801E-04   5.4661E-04   7.1500E+01   7.1414E+01
     4    4.0000E+03   2.6730E-04   6.1387E-04   6.6902E+01   6.6787E+01
     5    5.0000E+03   2.8576E-04   6.5628E-04   6.2308E+01   6.2164E+01
     6    6.0000E+03   2.9340E-04   6.7381E-04   5.9635E+01   5.9462E+01
     7    7.0000E+03   2.9650E-04   6.8094E-04   6.0138E+01   5.9937E+01
     8    8.0000E+03   3.1876E-04   7.3206E-04   6.5927E+01   6.5697E+01
     9    9.0000E+03   5.6834E-03   1.3052E-02   7.7983E+01   7.7724E+01


     TOTAL HARMONIC DISTORTION =   1.3158E+00 PERCENT

**** 04/06/19 11:54:24 ******* PSpice Lite (March 2016) ******* ID# 10813 ****

 diody zad4


 ****     INITIAL TRANSIENT SOLUTION       TEMPERATURE =   27.000 DEG C

 ****     CURRENT STEP                     PARAM AMPL =     .46  


******************************************************************************



 NODE   VOLTAGE     NODE   VOLTAGE     NODE   VOLTAGE     NODE   VOLTAGE


(    1)    0.0000  (    2) 225.1E-09  (    3)    5.0000  (    4)   -4.0000  




    VOLTAGE SOURCE CURRENTS
    NAME         CURRENT

    V_IN         2.251E-10
    V1          -6.162E-09
    V2          -5.937E-09

    TOTAL POWER DISSIPATION   5.46E-08  WATTS


**** 04/06/19 11:54:24 ******* PSpice Lite (March 2016) ******* ID# 10813 ****

 diody zad4


 ****     FOURIER ANALYSIS                 TEMPERATURE =   27.000 DEG C

 ****     CURRENT STEP                     PARAM AMPL =     .46  


******************************************************************************



FOURIER COMPONENTS OF TRANSIENT RESPONSE V(2)



 DC COMPONENT =   1.5482E-04

 HARMONIC   FREQUENCY     FOURIER     NORMALIZED     PHASE     NORMALIZED
    NO         (HZ)      COMPONENT     COMPONENT     (DEG)     PHASE (DEG)

     1    1.0000E+03   4.4510E-01   1.0000E+00   2.8754E-02   0.0000E+00
     2    2.0000E+03   2.0191E-04   4.5362E-04   6.7349E+01   6.7291E+01
     3    3.0000E+03   2.4330E-04   5.4662E-04   7.1500E+01   7.1414E+01
     4    4.0000E+03   2.7324E-04   6.1387E-04   6.6902E+01   6.6787E+01
     5    5.0000E+03   2.9211E-04   6.5628E-04   6.2308E+01   6.2164E+01
     6    6.0000E+03   2.9992E-04   6.7381E-04   5.9635E+01   5.9462E+01
     7    7.0000E+03   3.0309E-04   6.8094E-04   6.0138E+01   5.9937E+01
     8    8.0000E+03   3.2584E-04   7.3206E-04   6.5927E+01   6.5697E+01
     9    9.0000E+03   5.8097E-03   1.3052E-02   7.7983E+01   7.7724E+01


     TOTAL HARMONIC DISTORTION =   1.3158E+00 PERCENT

**** 04/06/19 11:54:24 ******* PSpice Lite (March 2016) ******* ID# 10813 ****

 diody zad4


 ****     INITIAL TRANSIENT SOLUTION       TEMPERATURE =   27.000 DEG C

 ****     CURRENT STEP                     PARAM AMPL =     .47  


******************************************************************************



 NODE   VOLTAGE     NODE   VOLTAGE     NODE   VOLTAGE     NODE   VOLTAGE


(    1)    0.0000  (    2) 225.1E-09  (    3)    5.0000  (    4)   -4.0000  




    VOLTAGE SOURCE CURRENTS
    NAME         CURRENT

    V_IN         2.251E-10
    V1          -6.162E-09
    V2          -5.937E-09

    TOTAL POWER DISSIPATION   5.46E-08  WATTS


**** 04/06/19 11:54:24 ******* PSpice Lite (March 2016) ******* ID# 10813 ****

 diody zad4


 ****     FOURIER ANALYSIS                 TEMPERATURE =   27.000 DEG C

 ****     CURRENT STEP                     PARAM AMPL =     .47  


******************************************************************************



FOURIER COMPONENTS OF TRANSIENT RESPONSE V(2)



 DC COMPONENT =   1.5818E-04

 HARMONIC   FREQUENCY     FOURIER     NORMALIZED     PHASE     NORMALIZED
    NO         (HZ)      COMPONENT     COMPONENT     (DEG)     PHASE (DEG)

     1    1.0000E+03   4.5478E-01   1.0000E+00   2.8753E-02   0.0000E+00
     2    2.0000E+03   2.0631E-04   4.5364E-04   6.7349E+01   6.7292E+01
     3    3.0000E+03   2.4859E-04   5.4662E-04   7.1500E+01   7.1414E+01
     4    4.0000E+03   2.7918E-04   6.1387E-04   6.6902E+01   6.6787E+01
     5    5.0000E+03   2.9846E-04   6.5628E-04   6.2308E+01   6.2164E+01
     6    6.0000E+03   3.0644E-04   6.7381E-04   5.9635E+01   5.9462E+01
     7    7.0000E+03   3.0968E-04   6.8094E-04   6.0138E+01   5.9937E+01
     8    8.0000E+03   3.3293E-04   7.3206E-04   6.5927E+01   6.5697E+01
     9    9.0000E+03   5.9360E-03   1.3052E-02   7.7983E+01   7.7724E+01


     TOTAL HARMONIC DISTORTION =   1.3158E+00 PERCENT

**** 04/06/19 11:54:24 ******* PSpice Lite (March 2016) ******* ID# 10813 ****

 diody zad4


 ****     INITIAL TRANSIENT SOLUTION       TEMPERATURE =   27.000 DEG C

 ****     CURRENT STEP                     PARAM AMPL =     .48  


******************************************************************************



 NODE   VOLTAGE     NODE   VOLTAGE     NODE   VOLTAGE     NODE   VOLTAGE


(    1)    0.0000  (    2) 225.1E-09  (    3)    5.0000  (    4)   -4.0000  




    VOLTAGE SOURCE CURRENTS
    NAME         CURRENT

    V_IN         2.251E-10
    V1          -6.162E-09
    V2          -5.937E-09

    TOTAL POWER DISSIPATION   5.46E-08  WATTS


**** 04/06/19 11:54:24 ******* PSpice Lite (March 2016) ******* ID# 10813 ****

 diody zad4


 ****     FOURIER ANALYSIS                 TEMPERATURE =   27.000 DEG C

 ****     CURRENT STEP                     PARAM AMPL =     .48  


******************************************************************************



FOURIER COMPONENTS OF TRANSIENT RESPONSE V(2)



 DC COMPONENT =   1.6154E-04

 HARMONIC   FREQUENCY     FOURIER     NORMALIZED     PHASE     NORMALIZED
    NO         (HZ)      COMPONENT     COMPONENT     (DEG)     PHASE (DEG)

     1    1.0000E+03   4.6446E-01   1.0000E+00   2.8754E-02   0.0000E+00
     2    2.0000E+03   2.1069E-04   4.5364E-04   6.7351E+01   6.7293E+01
     3    3.0000E+03   2.5388E-04   5.4662E-04   7.1500E+01   7.1414E+01
     4    4.0000E+03   2.8511E-04   6.1387E-04   6.6902E+01   6.6787E+01
     5    5.0000E+03   3.0481E-04   6.5628E-04   6.2308E+01   6.2164E+01
     6    6.0000E+03   3.1296E-04   6.7381E-04   5.9635E+01   5.9463E+01
     7    7.0000E+03   3.1627E-04   6.8094E-04   6.0138E+01   5.9937E+01
     8    8.0000E+03   3.4001E-04   7.3206E-04   6.5927E+01   6.5697E+01
     9    9.0000E+03   6.0623E-03   1.3052E-02   7.7983E+01   7.7724E+01


     TOTAL HARMONIC DISTORTION =   1.3158E+00 PERCENT

**** 04/06/19 11:54:24 ******* PSpice Lite (March 2016) ******* ID# 10813 ****

 diody zad4


 ****     INITIAL TRANSIENT SOLUTION       TEMPERATURE =   27.000 DEG C

 ****     CURRENT STEP                     PARAM AMPL =     .49  


******************************************************************************



 NODE   VOLTAGE     NODE   VOLTAGE     NODE   VOLTAGE     NODE   VOLTAGE


(    1)    0.0000  (    2) 225.1E-09  (    3)    5.0000  (    4)   -4.0000  




    VOLTAGE SOURCE CURRENTS
    NAME         CURRENT

    V_IN         2.251E-10
    V1          -6.162E-09
    V2          -5.937E-09

    TOTAL POWER DISSIPATION   5.46E-08  WATTS


**** 04/06/19 11:54:24 ******* PSpice Lite (March 2016) ******* ID# 10813 ****

 diody zad4


 ****     FOURIER ANALYSIS                 TEMPERATURE =   27.000 DEG C

 ****     CURRENT STEP                     PARAM AMPL =     .49  


******************************************************************************



FOURIER COMPONENTS OF TRANSIENT RESPONSE V(2)



 DC COMPONENT =   1.6491E-04

 HARMONIC   FREQUENCY     FOURIER     NORMALIZED     PHASE     NORMALIZED
    NO         (HZ)      COMPONENT     COMPONENT     (DEG)     PHASE (DEG)

     1    1.0000E+03   4.7413E-01   1.0000E+00   2.8754E-02   0.0000E+00
     2    2.0000E+03   2.1508E-04   4.5363E-04   6.7350E+01   6.7293E+01
     3    3.0000E+03   2.5917E-04   5.4661E-04   7.1499E+01   7.1413E+01
     4    4.0000E+03   2.9106E-04   6.1387E-04   6.6902E+01   6.6787E+01
     5    5.0000E+03   3.1116E-04   6.5627E-04   6.2308E+01   6.2164E+01
     6    6.0000E+03   3.1948E-04   6.7381E-04   5.9635E+01   5.9462E+01
     7    7.0000E+03   3.2286E-04   6.8094E-04   6.0138E+01   5.9937E+01
     8    8.0000E+03   3.4709E-04   7.3206E-04   6.5927E+01   6.5697E+01
     9    9.0000E+03   6.1886E-03   1.3052E-02   7.7983E+01   7.7724E+01


     TOTAL HARMONIC DISTORTION =   1.3158E+00 PERCENT

**** 04/06/19 11:54:24 ******* PSpice Lite (March 2016) ******* ID# 10813 ****

 diody zad4


 ****     INITIAL TRANSIENT SOLUTION       TEMPERATURE =   27.000 DEG C

 ****     CURRENT STEP                     PARAM AMPL =     .5   


******************************************************************************



 NODE   VOLTAGE     NODE   VOLTAGE     NODE   VOLTAGE     NODE   VOLTAGE


(    1)    0.0000  (    2) 225.1E-09  (    3)    5.0000  (    4)   -4.0000  




    VOLTAGE SOURCE CURRENTS
    NAME         CURRENT

    V_IN         2.251E-10
    V1          -6.162E-09
    V2          -5.937E-09

    TOTAL POWER DISSIPATION   5.46E-08  WATTS


**** 04/06/19 11:54:24 ******* PSpice Lite (March 2016) ******* ID# 10813 ****

 diody zad4


 ****     FOURIER ANALYSIS                 TEMPERATURE =   27.000 DEG C

 ****     CURRENT STEP                     PARAM AMPL =     .5   


******************************************************************************



FOURIER COMPONENTS OF TRANSIENT RESPONSE V(2)



 DC COMPONENT =   1.6826E-04

 HARMONIC   FREQUENCY     FOURIER     NORMALIZED     PHASE     NORMALIZED
    NO         (HZ)      COMPONENT     COMPONENT     (DEG)     PHASE (DEG)

     1    1.0000E+03   4.8381E-01   1.0000E+00   2.8754E-02   0.0000E+00
     2    2.0000E+03   2.1947E-04   4.5363E-04   6.7349E+01   6.7291E+01
     3    3.0000E+03   2.6446E-04   5.4661E-04   7.1499E+01   7.1413E+01
     4    4.0000E+03   2.9700E-04   6.1387E-04   6.6903E+01   6.6788E+01
     5    5.0000E+03   3.1751E-04   6.5627E-04   6.2308E+01   6.2164E+01
     6    6.0000E+03   3.2600E-04   6.7381E-04   5.9635E+01   5.9462E+01
     7    7.0000E+03   3.2945E-04   6.8094E-04   6.0138E+01   5.9937E+01
     8    8.0000E+03   3.5418E-04   7.3206E-04   6.5927E+01   6.5697E+01
     9    9.0000E+03   6.3149E-03   1.3052E-02   7.7983E+01   7.7724E+01


     TOTAL HARMONIC DISTORTION =   1.3158E+00 PERCENT


          JOB CONCLUDED

**** 04/06/19 11:54:24 ******* PSpice Lite (March 2016) ******* ID# 10813 ****

 diody zad4


 ****     JOB STATISTICS SUMMARY

 ****     CURRENT STEP                     PARAM AMPL =     .5   


******************************************************************************



  Total job time (using Solver 1)   =         .55
