
**** 04/06/19 12:07:07 ******* PSpice Lite (March 2016) ******* ID# 10813 ****

 diody zad4


 ****     CIRCUIT DESCRIPTION


******************************************************************************



*-------
.LIB EVAL.LIB 
.PARAM AMPL = 10
*-------
V_IN 1 0 1;SIN(0 {AMPL} 1k 0 0 0)
*V1 3 0 5
V2 0 4 4
*-------        
R1 1 2 1k
*D1 2 3 D1N4148
D2 4 2 D1N4148

*-------
*.TRAN 0 5m 
*.FOUR 1k V(2)
.DC V_IN -80 80 1m
*.STEP LIN PARAM AMPL 0 0.5 0.01
.PROBE

.END

**** 04/06/19 12:07:07 ******* PSpice Lite (March 2016) ******* ID# 10813 ****

 diody zad4


 ****     Diode MODEL PARAMETERS


******************************************************************************




               D1N4148         
          IS    2.682000E-09 
           N    1.836        
         ISR    1.565000E-09 
         IKF     .04417      
          BV  100            
         IBV  100.000000E-06 
          RS     .5664       
          TT   11.540000E-09 
         CJO    4.000000E-12 
          VJ     .5          
           M     .3333       



          JOB CONCLUDED

**** 04/06/19 12:07:07 ******* PSpice Lite (March 2016) ******* ID# 10813 ****

 diody zad4


 ****     JOB STATISTICS SUMMARY


******************************************************************************



  Total job time (using Solver 1)   =        2.56
